version 2
run General-0-20201221-09:26:51-26448
attr configname General
attr datetime 20201221-09:26:51
attr experiment General
attr inifile omnetpp.ini
attr iterationvars ""
attr iterationvarsf ""
attr measurement ""
attr network SixFlags1
attr processid 26448
attr repetition 0
attr replication #0
attr resultdir results
attr runnumber 0
attr seedset 0
param **.source.interArrivalTime exponential(1.008s)
param **.server.serviceTime exponential(2.5s)
param **.server4.serviceTime exponential(5s)
param **.server5.serviceTime exponential(5s)
param **.server6.serviceTime exponential(5s)
param **.server7.serviceTime exponential(5s)
param **.server8.serviceTime exponential(5s)
param **.server1.serviceTime exponential(1.2s)
param **.server2.serviceTime exponential(1.2s)
param **.server3.serviceTime exponential(1.2s)
param **.source.numJobs 20000
param **.router1.routingAlgorithm "\"roundrobin\""
param **.router.routingAlgorithm "\"roundrobin\""

vector 0 SixFlags1.passiveQueue queueLength:vector ETV
attr interpolationmode sample-hold
attr title "queue length, vector"
vector 1 SixFlags1.passiveQueue1 queueLength:vector ETV
attr interpolationmode sample-hold
attr title "queue length, vector"
vector 2 SixFlags1.passiveQueue2 queueLength:vector ETV
attr interpolationmode sample-hold
attr title "queue length, vector"
vector 3 SixFlags1.passiveQueue4 queueLength:vector ETV
attr interpolationmode sample-hold
attr title "queue length, vector"
vector 4 SixFlags1.passiveQueue5 queueLength:vector ETV
attr interpolationmode sample-hold
attr title "queue length, vector"
vector 5 SixFlags1.passiveQueue6 queueLength:vector ETV
attr interpolationmode sample-hold
attr title "queue length, vector"
vector 6 SixFlags1.passiveQueue7 queueLength:vector ETV
attr interpolationmode sample-hold
attr title "queue length, vector"
vector 7 SixFlags1.passiveQueue8 queueLength:vector ETV
attr interpolationmode sample-hold
attr title "queue length, vector"
vector 8 SixFlags1.passiveQueue9 queueLength:vector ETV
attr interpolationmode sample-hold
attr title "queue length, vector"
vector 9 SixFlags1.sink lifeTime:vector ETV
attr interpolationmode none
attr title "lifetime of arrived jobs, vector"
attr unit s
0	0	0	0
0	173	17.331713378676	1
0	178	18.06299417256	0
0	288	28.532188466782	1
0	289	29.096149358508	0
0	328	31.600926938961	1
0	333	32.851664504692	0
0	407	37.078847571899	1
0	513	44.30388168014	2
0	522	44.923636004045	1
0	560	47.571159467498	0
0	576	48.761294568407	1
0	595	49.496351616364	0
0	614	50.710163192955	1
0	643	51.865340929901	0
0	727	57.675106728331	1
0	741	58.765673424517	0
0	772	60.445463138172	1
0	788	61.855807010305	2
0	798	62.959109115639	1
0	802	63.021579998921	0
0	959	73.223407515896	1
0	987	75.224862798424	0
0	1064	79.681409669726	1
0	1065	79.711603248446	0
0	1087	81.433586746564	1
0	1096	82.750829431842	0
0	1124	85.257962719916	1
0	1131	86.26139007243	2
0	1143	89.046691641386	3
0	1146	89.264516627713	4
0	1149	90.234224649716	5
0	1154	90.898131874804	4
0	1185	95.855004136312	3
0	1208	96.65890398441	4
0	1218	97.176172207066	3
0	1239	99.677294227951	4
0	1268	101.064408107952	3
0	1292	102.123410914353	4
0	1325	104.722246695063	5
0	1326	104.744918502936	4
0	1340	105.374598796738	5
0	1358	106.148769026574	6
0	1364	106.418175682901	5
0	1376	107.588441815988	4
0	1409	110.515510517439	5
0	1412	111.191104249028	6
0	1416	111.364595819048	5
0	1435	112.059665080758	6
0	1503	117.037901786659	7
0	1529	119.376617893077	6
0	1534	119.401153984072	5
0	1605	127.396791425997	4
0	1618	128.313554310482	3
0	1639	128.630937072825	4
0	1647	129.416441337306	3
0	1674	131.189141987757	4
0	1703	132.267138529604	3
0	1779	138.588683228279	4
0	1807	142.261047221404	3
0	1815	143.751476949896	2
0	1829	144.494910769666	1
0	1886	152.194768025274	2
0	1893	152.667397206147	3
0	1896	152.941125444162	4
0	1921	154.907165002598	5
0	1937	156.569211389589	4
0	1960	158.402274736285	3
0	1978	159.735528117481	4
0	2021	161.479071863862	3
0	2028	162.227454371216	2
0	2036	163.532732632243	1
0	2044	164.325176081957	0
0	2126	169.886047918137	1
0	2150	171.365536504072	2
0	2153	171.724551611888	3
0	2167	172.354056114397	4
0	2178	173.097834959466	3
0	2210	174.771614715317	4
0	2211	174.844287474664	3
0	2234	176.602506858095	4
0	2245	178.064013072439	3
0	2289	184.220623745954	2
0	2306	185.795623282394	3
0	2307	186.157158086844	2
0	2312	186.515279846307	1
0	2336	188.481987634957	0
0	2343	188.721165115202	1
0	2348	189.328090467	0
0	2381	192.080988118279	1
0	2391	193.478033225596	0
0	2462	196.797424851149	1
0	2486	197.914574485941	0
0	2621	211.651396318695	1
0	2636	213.08476322431	2
0	2649	214.419694859349	1
0	2653	214.819555392732	0
0	2677	217.217496991321	1
0	2691	217.706991726653	0
0	2958	237.298517537399	1
0	2975	238.008620404973	0
0	3071	246.287108011685	1
0	3074	246.647217821316	2
0	3144	253.418979765972	3
0	3149	253.543026517787	2
0	3190	259.185744371864	1
0	3217	260.694441352937	0
0	3254	263.60584767317	1
0	3257	263.720619215734	2
0	3320	269.959417946241	1
0	3333	271.784466899829	2
0	3334	272.22567113929	1
0	3345	272.397362778599	2
0	3366	274.517605818506	1
0	3371	274.729790128034	0
0	3868	313.287517031589	1
0	3871	313.938160640783	2
0	3882	315.362736614592	3
0	3883	315.377851414269	2
0	3890	315.54393881547	3
0	3909	317.176093344955	2
0	3941	320.459309233321	1
0	3953	321.072982938673	0
0	3960	321.376517951131	1
0	3966	322.593245681321	2
0	4000	326.62735094492	1
0	4018	327.600101090931	0
0	4024	327.668422042513	1
0	4063	330.918408522152	0
0	4081	332.520361929798	1
0	4093	334.18544632015	2
0	4103	335.008682873643	1
0	4120	335.983263489938	0
0	4141	336.26645608625	1
0	4165	337.396489907537	0
0	4187	338.1828106241	1
0	4212	339.579087536841	0
0	4293	346.755295354788	1
0	4294	346.996478354545	0
0	4308	347.537065835996	1
0	4348	348.886567222663	2
0	4352	349.459953965921	1
0	4369	350.122384305216	0
0	4651	375.791004792671	1
0	4676	377.715117776841	2
0	4682	377.787056328345	3
0	4726	380.992097003087	2
0	4785	388.057463601895	3
0	4817	391.999382980391	2
0	4845	393.690651361183	3
0	4857	394.730950470305	2
0	4882	396.604396256473	3
0	4907	399.799624758461	4
0	4915	400.791444855458	3
0	4922	400.86652200533	4
0	4923	401.050989029732	3
0	4927	401.131198581058	2
0	4991	405.251175171217	1
0	5001	405.779093550126	2
0	5008	405.879375278986	3
0	5009	406.783377610153	2
0	5029	407.297302132161	1
0	5066	408.571843828952	2
0	5086	410.319269353967	1
0	5091	411.222600993652	0
0	5208	423.785033305966	1
0	5220	425.343515422166	2
0	5244	427.336928871165	1
0	5276	428.200833212949	0
0	5328	432.429264585528	1
0	5360	435.171304738332	2
0	5371	435.679891065805	3
0	5378	435.93140590298	4
0	5381	436.09948239788	5
0	5426	443.353575295601	4
0	5457	445.99615505598	3
0	5510	447.871585274552	2
0	5578	451.929586465683	1
0	5617	455.731901131608	0
0	5653	457.120882126271	1
0	5654	457.546716105626	0
0	5691	459.012783662361	1
0	5696	460.13964581267	0
0	5725	462.413382346768	1
0	5735	463.748064251021	0
0	5841	469.573986010642	1
0	5846	469.828402438374	0
0	5884	473.364123588166	1
0	5903	474.155031993619	2
0	5928	477.09857378268	1
0	5933	477.263456885768	0
0	6010	484.511719076186	1
0	6011	484.7214793005	0
0	6029	485.673357273776	1
0	6040	486.059658735721	2
0	6049	486.52929508462	1
0	6081	487.701961208309	0
0	6244	504.775750142517	1
0	6267	507.650113556705	2
0	6268	507.835179827619	1
0	6281	508.207697122875	0
0	6342	510.569314504645	1
0	6346	512.645033905505	0
0	6373	514.937410711085	1
0	6382	515.203085870737	0
0	6427	518.725800276737	1
0	6445	520.683225904222	2
0	6466	521.882185154132	1
0	6489	524.221065035428	0
0	6614	531.774471817267	1
0	6619	531.952814553974	0
0	6629	533.597150430111	1
0	6671	535.71594679893	0
0	6858	554.565023045862	1
0	6861	554.845019251974	2
0	6867	555.155546499175	1
0	6876	555.255121617414	0
0	6886	555.872881596268	1
0	6910	558.00900609167	0
0	7162	574.716954046704	1
0	7166	575.121169094274	0
0	7246	579.53826914427	1
0	7265	580.513579208129	0
0	7285	581.277624659039	1
0	7292	581.527142877327	2
0	7345	586.644457090793	1
0	7367	587.513450691713	0
0	7421	593.353651088064	1
0	7485	598.261583940142	2
0	7562	603.65520972129	1
0	7569	603.694227178486	2
0	7574	604.012427829138	1
0	7596	605.52797090999	0
0	7618	607.382351592994	1
0	7633	608.326778297899	2
0	7669	610.538091158135	1
0	7711	613.284307610406	2
0	7735	617.13908224222	3
0	7740	617.454528926425	2
0	7780	620.888801753264	1
0	7784	621.065760373605	0
0	7911	630.147213991367	1
0	7944	631.787315144431	0
0	8147	648.184670239723	1
0	8162	649.221844071985	2
0	8196	651.449820446445	3
0	8212	652.292278496068	4
0	8227	654.322272681846	3
0	8244	655.932554352513	2
0	8260	656.791462775105	1
0	8290	659.965732915099	2
0	8302	660.522136144833	1
0	8318	660.923402496726	2
0	8332	662.24484261362	3
0	8333	662.311904850585	2
0	8355	665.14720672149	3
0	8356	665.214055367792	2
0	8363	665.234728848081	3
0	8376	666.1124142869	2
0	8380	666.11259853607	1
0	8391	666.845977452981	0
0	8421	669.2514327931	1
0	8514	675.47343238912	0
0	8599	682.577695062989	1
0	8626	683.229624490955	0
0	8632	683.806242640295	1
0	8639	684.220202752611	2
0	8689	687.523047711748	1
0	8707	689.505361140794	2
0	8722	690.803279302502	3
0	8747	691.682784029104	4
0	8761	692.707634265828	5
0	8779	694.604852898421	6
0	8788	697.62930159442	5
0	8823	699.546219501587	6
0	8877	702.952280822852	5
0	8891	703.391095504847	6
0	8899	705.320321332113	5
0	8917	707.906570467193	6
0	8955	711.502356562279	5
0	8974	714.16237925631	4
0	9010	716.520013753949	3
0	9027	718.583042123125	2
0	9053	719.904202219574	3
0	9072	722.502027967109	2
0	9116	730.06291370857	1
0	9126	730.479430466922	2
0	9127	731.162659476846	1
0	9137	732.086495827093	2
0	9138	732.253086515844	1
0	9166	734.938945904028	2
0	9170	735.015536897884	1
0	9178	736.241326937405	0
0	9208	737.914628925566	1
0	9213	738.456829590567	0
0	9462	761.596306933943	1
0	9465	762.245384429775	2
0	9482	763.364803520489	1
0	9489	763.536306485975	2
0	9526	766.078311657419	3
0	9537	768.03166100113	2
0	9555	770.776194469225	3
0	9606	776.810116732068	4
0	9629	778.40915391417	5
0	9638	780.179706698733	4
0	9658	781.238071200271	5
0	9665	781.545531103435	6
0	9676	781.669499734095	7
0	9687	782.662574544744	8
0	9706	784.889141778173	7
0	9711	785.217774646867	6
0	9721	785.827186284768	7
0	9773	787.772983166215	8
0	9783	788.349982054373	9
0	9807	790.673541916547	8
0	9827	793.022192517733	7
0	9832	793.061407783012	6
0	9845	794.583857395847	7
0	9885	796.789050435873	6
0	9898	797.614202102015	5
0	9903	798.295581634419	4
0	9907	798.384927753419	3
0	9959	805.174366147261	2
0	9968	805.580491100507	1
0	9980	806.690584530783	0
0	10036	809.699925585921	1
0	10121	813.941618941718	2
0	10134	814.943444878585	1
0	10138	815.05403178564	0
0	10164	817.317529021639	1
0	10192	819.087151031588	0
0	10222	819.828441905767	1
0	10223	820.022506895932	0
0	10473	842.605701893941	1
0	10481	842.972833490478	0
0	10594	853.483583568484	1
0	10595	854.231800515049	0
0	10629	856.995684798858	1
0	10649	858.17416137791	2
0	10650	859.053249137426	1
0	10670	860.540045392147	0
0	10681	861.19907109455	1
0	10688	862.11722770566	2
0	10695	863.441873767312	3
0	10710	864.497214754591	4
0	10711	864.739450593477	3
0	10757	867.841083090646	4
0	10780	870.077252532812	5
0	10804	873.428653743217	6
0	10813	875.421690359301	5
0	10820	876.129593759718	6
0	10821	876.153778837733	5
0	10858	878.192918090645	4
0	10864	878.382587507897	5
0	10877	878.647131603609	4
0	10910	882.694327213032	5
0	10915	883.02507320093	4
0	10922	883.38016483437	5
0	10931	884.29709070225	4
0	11003	888.743274881325	3
0	11015	889.604368779918	2
0	11045	890.8643991458	3
0	11068	896.600498041019	2
0	11088	897.731093040497	3
0	11103	898.463782553273	4
0	11128	900.151320534123	3
0	11136	900.39945541177	2
0	11160	901.095539828431	3
0	11188	902.275364712008	2
0	11211	904.634018209309	1
0	11230	905.118348326238	2
0	11239	906.125745000248	1
0	11259	906.987784780943	0
0	11497	928.128509810856	1
0	11500	928.170657363181	2
0	11504	928.811860722213	1
0	11533	932.197946276142	0
0	11625	940.590020228011	1
0	11628	941.796931014885	2
0	11670	944.807141399586	3
0	11677	945.731750041206	4
0	11685	946.290107855114	5
0	11706	947.260467625777	4
0	11713	947.26947023062	5
0	11735	949.765670136491	4
0	11750	951.344861729852	5
0	11760	952.446314456518	6
0	11779	955.98810504752	7
0	11780	956.902798485957	6
0	11804	958.67434090841	7
0	11819	960.725099926903	8
0	11831	961.458967442936	7
0	11836	961.671378394315	6
0	11842	961.9293950359	7
0	11843	961.98090332689	6
0	11859	962.850854827288	5
0	11869	962.969690478053	6
0	11872	963.157424059616	7
0	11906	967.106894141734	8
0	11915	967.719925007456	7
0	11928	968.137029617559	6
0	11965	970.316856858971	5
0	11977	971.850836540969	4
0	12011	973.069202863148	5
0	12022	973.780346175708	6
0	12048	975.936367610564	5
0	12062	976.784343980859	6
0	12099	979.25618955486	7
0	12103	979.891302470401	6
0	12119	981.397352798325	5
0	12124	982.351113575431	4
0	12137	983.018498381378	3
0	12147	983.668289888943	4
0	12153	984.113229723729	5
0	12182	986.740456405937	4
0	12204	988.333070912239	5
0	12209	989.361519378957	4
0	12250	991.438270303938	5
0	12277	993.767839898321	4
0	12295	994.140100267318	5
0	12381	1000.407732689069	6
0	12384	1000.705671121037	7
0	12405	1002.742479175141	6
0	12420	1004.002209503484	7
0	12432	1005.80571676536	8
0	12449	1006.45901440776	7
0	12460	1006.939633717935	6
0	12473	1007.94833377099	7
0	12474	1008.264388908779	6
0	12483	1008.655602704892	5
0	12514	1010.021810978085	4
0	12568	1012.989518040802	5
0	12593	1014.966510500319	4
0	12602	1015.166277090795	3
0	12615	1016.335926299776	4
0	12630	1017.2959433716	5
0	12647	1019.155581750792	4
0	12666	1019.753717201362	5
0	12667	1019.841206739335	4
0	12677	1019.882050648168	5
0	12693	1021.294672420556	4
0	12717	1022.312880742972	3
0	12760	1023.294863915856	4
0	12761	1023.5048905145	3
0	12769	1023.947243284067	2
0	12808	1025.875844725226	3
0	12812	1026.071647551603	2
0	12887	1031.840110940281	1
0	12895	1032.318261952992	0
0	13197	1054.509590919239	1
0	13200	1054.754097971779	2
0	13212	1055.400108778932	1
0	13217	1055.415752037829	0
0	13339	1065.56656847708	1
0	13345	1065.762619430625	0
0	13401	1070.203462148538	1
0	13402	1071.544428068819	0
0	13518	1080.66464226685	1
0	13523	1081.243698767775	0
0	13534	1081.44331338275	1
0	13571	1083.185820701597	2
0	13583	1084.431042593853	1
0	13588	1085.38176214737	0
0	13656	1090.763574467513	1
0	13661	1090.929789433363	0
0	13742	1096.961401890255	1
0	13759	1099.316280227357	0
0	13789	1103.418099854768	1
0	13803	1105.745647278059	2
0	13809	1106.420938739384	1
0	13828	1108.330800551593	0
0	13842	1109.828922599799	1
0	13873	1111.919430480982	2
0	13880	1112.295605062719	3
0	13893	1113.24560292473	4
0	13924	1115.384032663242	3
0	13937	1116.807410404572	2
0	13960	1117.871159780359	1
0	13969	1119.254925850578	0
0	14017	1121.020567191775	1
0	14018	1121.452148189908	0
0	14137	1132.24176950741	1
0	14151	1133.448289140037	2
0	14166	1135.210692579188	3
0	14170	1135.768970331435	2
0	14184	1136.84011245436	3
0	14200	1138.830748309526	4
0	14213	1140.148183024258	3
0	14233	1142.09748650618	2
0	14238	1142.215808894634	1
0	14284	1144.758195364122	2
0	14287	1144.991886045621	3
0	14290	1145.161103009027	4
0	14301	1146.543406225579	5
0	14302	1148.223422628603	4
0	14326	1149.623891676454	3
0	14346	1149.931340272523	2
0	14357	1150.029400076964	3
0	14367	1150.294314948977	4
0	14376	1150.720996147174	3
0	14440	1153.723515616426	2
0	14465	1155.164819625141	3
0	14490	1156.703360186557	2
0	14499	1156.9578064699	1
0	14509	1157.627947648546	2
0	14523	1159.711433144012	3
0	14543	1161.572149155416	4
0	14576	1163.888789760722	3
0	14621	1167.661500617877	4
0	14632	1169.005628019447	5
0	14648	1170.611021260343	4
0	14694	1177.039436079361	5
0	14704	1178.571871657013	4
0	14709	1178.818951337787	3
0	14717	1179.27602312852	2
0	14729	1179.836459216414	1
0	14759	1180.555061234443	2
0	14766	1180.888420781462	3
0	14769	1180.999963071544	4
0	14832	1188.144801476958	3
0	14880	1192.746336596899	2
0	14893	1193.794257639224	1
0	14927	1196.21560767166	0
0	15132	1207.936554599157	1
0	15144	1208.534589989303	2
0	15148	1208.92873834219	1
0	15165	1209.553007412902	2
0	15171	1210.006548481959	1
0	15185	1210.162416342812	2
0	15205	1211.718032785188	3
0	15278	1215.854842666424	2
0	15294	1216.875085637785	1
0	15308	1218.618183943009	2
0	15367	1226.138557082982	1
0	15381	1227.170169708892	0
0	15527	1240.664185365893	1
0	15545	1241.676699038205	2
0	15559	1243.148833558433	1
0	15586	1244.452936315001	2
0	15587	1244.454872838404	1
0	15611	1245.801081088601	0
0	15669	1249.59090359161	1
0	15682	1250.380907603603	0
0	15715	1251.636471385796	1
0	15725	1252.438601083543	2
0	15730	1252.618558253006	1
0	15771	1254.962792792261	0
0	15801	1255.734387727952	1
0	15826	1257.251277262531	2
0	15829	1257.60962581871	3
0	15844	1257.996745030585	4
0	15862	1259.141831300685	3
0	15891	1261.404917308565	2
0	15897	1261.539756314127	3
0	15902	1262.301798072194	2
0	15959	1264.59836164739	1
0	15963	1265.01124983025	0
0	16311	1286.898239138754	1
0	16316	1287.185398450802	0
0	16352	1289.720318186644	1
0	16369	1290.74838344042	2
0	16401	1293.029703002975	3
0	16407	1293.260339378342	4
0	16408	1293.347244342064	3
0	16415	1293.636492206359	4
0	16445	1295.32768317201	5
0	16459	1296.607470479112	4
0	16466	1296.643002268653	3
0	16514	1299.552019426747	2
0	16524	1300.342945129193	3
0	16571	1303.776915682194	4
0	16577	1304.157992098869	3
0	16623	1307.46510516259	4
0	16627	1308.687670394609	3
0	16639	1309.249373766261	2
0	16662	1309.976217617163	3
0	16682	1311.103187353138	2
0	16698	1312.45117187009	1
0	16724	1313.545650734765	2
0	16725	1314.054116116837	1
0	16730	1314.362027279462	0
0	16736	1314.501085346372	1
0	16744	1315.107614236251	0
0	16903	1325.890622716028	1
0	16917	1326.380367459394	2
0	16920	1326.469304889483	3
0	16923	1326.73583139988	4
0	16924	1327.377420363053	3
0	16929	1327.865177175508	2
0	16963	1329.204303132393	3
0	16984	1330.89360838179	2
0	17001	1332.111900135889	1
0	17025	1333.091749815524	0
0	17096	1338.990211113133	1
0	17097	1339.195578079273	0
0	17329	1359.182870927714	1
0	17356	1363.287332165544	2
0	17384	1365.499849282684	1
0	17409	1367.197489996142	2
0	17417	1368.718608251665	1
0	17422	1368.867099654673	0
0	17821	1403.670491619484	1
0	17826	1403.81156660186	0
0	17923	1411.012867622796	1
0	17972	1413.554090650353	0
0	17983	1413.724938755494	1
0	17986	1413.83990426601	2
0	17992	1414.13987298187	3
0	18005	1415.03891857352	2
0	18085	1419.853860615238	3
0	18095	1420.715784020732	4
0	18111	1422.292907652634	3
0	18116	1422.352855900455	2
0	18136	1422.954124775488	1
0	18183	1427.001210879245	0
0	18279	1431.928684125166	1
0	18304	1433.637127618322	0
0	18372	1436.819850469638	1
0	18379	1437.357066584659	2
0	18380	1437.756005384575	1
0	18396	1438.443226655266	2
0	18428	1441.262475709796	1
0	18455	1445.891130513944	0
0	18493	1449.658509111856	1
0	18494	1450.157441496821	0
0	18747	1465.629927679374	1
0	18750	1466.036578896964	2
0	18751	1466.224519813828	1
0	18755	1466.603645583163	0
0	18977	1480.009705295001	1
0	19003	1481.56405732506	2
0	19004	1481.609345859358	1
0	19011	1481.721862391179	2
0	19014	1483.029981707699	3
0	19040	1486.035311590058	4
0	19071	1489.133934355483	5
0	19088	1490.174994098874	4
0	19098	1490.559368363978	5
0	19135	1493.425216182137	6
0	19166	1496.17700842953	5
0	19171	1497.242267810306	4
0	19186	1497.936288634113	3
0	19235	1500.163068804022	2
0	19260	1502.183127612361	1
0	19281	1503.650474551199	0
0	19533	1514.333321095327	1
0	19582	1517.945077999044	0
0	19732	1530.356734345657	1
0	19735	1530.494897005271	2
0	19760	1531.75499726204	1
0	19781	1533.662210995085	0
0	19850	1538.750154050974	1
0	19858	1539.156366052866	0
0	19873	1540.415318992895	1
0	19876	1540.498839519748	2
0	19904	1543.172016033531	1
0	19937	1545.941657856704	0
0	19951	1546.367912761274	1
0	19959	1549.216009620711	0
0	20090	1557.603416064389	1
0	20097	1558.602983960559	2
0	20177	1564.41129131933	1
0	20217	1567.086086442801	0
0	20231	1567.960837999295	1
0	20232	1567.999167783608	0
0	20261	1568.591082884328	1
0	20272	1569.752596596542	2
0	20281	1571.359184589281	1
0	20320	1574.175009913433	2
0	20321	1574.319326543476	1
0	20347	1575.819863131687	2
0	20348	1575.984877082292	1
0	20398	1578.932400507613	2
0	20425	1581.341259681402	1
0	20462	1584.707661025337	0
0	20493	1586.36659314646	1
0	20494	1587.147419864674	0
0	20507	1587.56767005685	1
0	20517	1587.950347211628	2
0	20536	1589.576213584569	3
0	20568	1592.86143362738	4
0	20591	1595.11832694562	5
0	20603	1596.374988574299	4
0	20624	1597.93656822464	3
0	20676	1604.639100623886	2
0	20690	1606.874038943918	3
0	20724	1609.565468930913	4
0	20735	1612.048788047304	3
0	20743	1612.578290474196	2
0	20758	1613.625282252509	1
0	20796	1617.389877367692	2
0	20799	1617.856185123242	3
0	20812	1618.80002656882	2
0	20832	1620.048692720442	1
0	20878	1622.626592508314	2
0	20881	1622.982648958985	3
0	20899	1624.345197900219	2
0	20919	1626.6291477913	1
0	20932	1627.359426859637	2
0	20937	1627.955180473788	1
0	20971	1630.612639992803	2
0	20978	1630.91573825321	3
0	21017	1633.568540138119	2
0	21043	1636.168128485905	1
0	21056	1636.441955789895	0
0	21109	1639.925509904566	1
0	21130	1640.895392466551	2
0	21164	1642.912362205127	1
0	21186	1644.610774643419	0
0	21226	1646.53657044926	1
0	21237	1648.420703052077	0
0	21254	1649.432285980402	1
0	21266	1649.850825502867	0
0	21327	1657.403329758771	1
0	21340	1658.249226090897	0
0	21401	1663.293654600342	1
0	21420	1664.835147073443	2
0	21435	1667.223755389583	3
0	21436	1667.558394924514	2
0	21461	1669.183714431479	1
0	21557	1676.877350169554	0
0	21571	1677.343720263684	1
0	21581	1678.240915060292	0
0	21598	1678.923443835342	1
0	21607	1680.0118539479	0
0	21626	1680.423064709685	1
0	21630	1681.516662715586	0
0	21733	1691.120928348726	1
0	21743	1691.75652272137	2
0	21746	1692.837746980319	3
0	21747	1692.846041091224	2
0	21758	1693.491804101265	3
0	21772	1695.644075090184	4
0	21787	1696.191538496792	5
0	21829	1698.988384531864	6
0	21833	1699.360206064564	5
0	21865	1701.05588247501	4
0	21874	1701.388081800735	3
0	21887	1702.433660800306	4
0	21931	1706.884409947676	3
0	21945	1708.34427121631	4
0	21954	1709.74613934614	3
0	21963	1710.196244436913	2
0	21977	1710.598328342518	3
0	21992	1712.152754239818	4
0	22061	1717.798230239704	5
0	22078	1720.453135188319	4
0	22103	1722.009676223652	3
0	22139	1726.627304982878	2
0	22154	1728.432038440019	3
0	22172	1729.66762294367	4
0	22173	1729.951457688322	3
0	22178	1730.024563108448	2
0	22185	1730.082739953575	3
0	22194	1732.057303826823	2
0	22202	1732.108381726255	1
0	22237	1733.34620124753	0
0	22277	1734.689991679986	1
0	22278	1735.831991551483	0
0	22512	1753.178717339203	1
0	22525	1754.481235846745	0
0	22550	1756.313361578107	1
0	22597	1759.922634689383	0
0	22606	1760.125360288026	1
0	22642	1763.253799634642	0
0	22648	1763.54161837271	1
0	22720	1768.31296379497	0
0	22743	1770.15681048997	1
0	22750	1770.763910687961	2
0	22759	1771.125394939105	1
0	22764	1771.166312101678	0
0	22796	1772.97394873197	1
0	22838	1777.46213938388	0
0	23021	1789.807425274355	1
0	23038	1791.762328291262	0
0	23090	1795.595387121661	1
0	23093	1795.886745875302	2
0	23116	1799.95159597928	3
0	23125	1800.517132449717	2
0	23157	1801.788530543643	3
0	23161	1802.054330759753	2
0	23197	1803.352774669732	1
0	23201	1803.480554122097	0
0	23320	1811.202800899293	1
0	23326	1812.095945339501	0
0	23333	1812.168683023392	1
0	23348	1813.331852041283	2
0	23351	1813.407522281166	3
0	23399	1817.647456307911	4
0	23403	1817.875288864509	3
0	23413	1818.613653159226	4
0	23423	1819.604714853645	5
0	23447	1821.859956664223	6
0	23457	1823.748744157229	7
0	23462	1825.063616450127	6
0	23486	1826.359246369777	5
0	23497	1826.788433940133	6
0	23501	1827.608040762866	5
0	23523	1828.643274213366	6
0	23536	1829.214960563267	5
0	23541	1829.660009663598	4
0	23547	1829.744733636026	5
0	23559	1831.30704184001	4
0	23588	1833.211781307652	3
0	23593	1833.318835028314	2
0	23613	1833.88509286584	1
0	23617	1834.140706443166	0
0	23825	1847.778942076866	1
0	23834	1848.216655862664	0
0	23852	1850.859925912265	1
0	23853	1850.951057580683	0
0	23880	1851.899915570799	1
0	23891	1853.312751295352	2
0	23909	1854.313259255553	1
0	23919	1854.481267158583	2
0	23920	1854.693047001862	1
0	23928	1854.950342606164	0
0	24176	1871.377077528074	1
0	24177	1871.426589794664	0
0	24603	1912.064049359509	1
0	24626	1915.432625813853	2
0	24627	1915.45446190922	1
0	24648	1916.905688782467	0
0	24741	1922.788856064108	1
0	24761	1926.185936306699	0
0	24768	1926.211971136943	1
0	24771	1926.337088017837	2
0	24775	1928.777378116671	1
0	24827	1933.54059153307	0
0	24967	1945.33809102001	1
0	24971	1946.986761209314	0
0	24985	1948.410453637766	1
0	25003	1949.353938992704	0
0	25036	1951.106265991093	1
0	25047	1951.535379605329	2
0	25109	1957.4670758169	1
0	25115	1957.517946758329	2
0	25116	1957.688378937125	1
0	25128	1958.066672478739	0
0	25150	1959.50977595935	1
0	25151	1959.567708480009	0
0	25291	1969.594914801799	1
0	25296	1970.235880822593	0
0	25344	1972.097953784793	1
0	25397	1974.389480583076	0
0	25611	1988.873888633991	1
0	25612	1988.921068822849	0
0	25714	1995.755953337271	1
0	25715	1995.99395363175	0
0	25774	1999.023943664631	1
0	25780	2000.850493113417	0
0	26025	2021.056570279044	1
0	26071	2025.732543295213	0
0	26095	2027.508864734235	1
0	26098	2027.671869083054	2
0	26121	2028.957111054999	1
0	26129	2029.129501494056	0
0	26185	2032.928167892907	1
0	26194	2033.30945314776	0
0	26244	2037.404670973648	1
0	26248	2037.718499053933	0
0	26342	2048.234426286928	1
0	26345	2048.596113304566	2
0	26359	2050.601680278404	1
0	26397	2052.386487543854	0
0	26533	2065.547353873994	1
0	26534	2065.760319844331	0
0	26545	2066.338401980734	1
0	26557	2066.576456763846	2
0	26576	2068.118183988381	3
0	26582	2069.120451577649	4
0	26598	2069.825878447449	5
0	26613	2072.096593394551	6
0	26619	2072.211839403203	5
0	26654	2074.806991734226	4
0	26661	2075.363587717475	3
0	26669	2075.875932738386	2
0	26684	2076.699623648416	3
0	26716	2077.924022104574	2
0	26727	2078.648898925806	3
0	26775	2081.578184245863	2
0	26791	2082.654312411799	1
0	26804	2083.304205812518	0
0	26811	2083.578588249488	1
0	26812	2084.071850156516	0
0	26944	2091.687749367529	1
0	26977	2093.295452946855	0
0	27065	2099.076084329147	1
0	27066	2099.62646601159	0
0	27418	2125.61603524872	1
0	27424	2126.23138380156	0
0	27617	2140.057983025097	1
0	27642	2141.050958096061	0
0	27656	2141.656957473349	1
0	27700	2147.392173237877	2
0	27701	2148.001989401755	1
0	27705	2148.384101716769	0
0	27742	2151.263088133897	1
0	27775	2154.750627905432	2
0	27776	2154.993460833258	1
0	27794	2157.335992283692	0
0	27943	2175.336639737859	1
0	27952	2177.369971694364	0
0	28442	2215.301511118435	1
0	28466	2217.139932620525	2
0	28475	2217.253874669079	1
0	28507	2218.858153251609	2
0	28521	2220.494210320632	1
0	28544	2223.318628737125	0
0	29027	2263.616087059951	1
0	29041	2264.202250183815	0
0	29094	2266.333023991784	1
0	29095	2266.381556751644	0
0	29265	2277.332354510084	1
0	29285	2278.658930996821	2
0	29288	2278.921936653334	3
0	29292	2280.812447195674	2
0	29307	2282.001899547234	1
0	29365	2287.280572729436	0
0	29419	2293.704920078791	1
0	29423	2293.811843644171	0
0	29437	2294.329412606561	1
0	29458	2295.121050393167	2
0	29472	2295.717536967355	3
0	29479	2296.581166721893	4
0	29511	2300.225944967259	5
0	29533	2301.924055382392	4
0	29540	2302.008180898614	3
0	29585	2304.650904588671	4
0	29590	2306.071921024399	3
0	29605	2306.695854336488	4
0	29635	2309.297881983063	5
0	29638	2309.335463671434	6
0	29649	2310.323016508524	7
0	29660	2310.725438247672	8
0	29661	2310.803084217549	7
0	29705	2315.124304332302	6
0	29730	2316.191487904634	7
0	29743	2317.772608491257	6
0	29761	2320.496298216283	7
0	29771	2322.216222809281	6
0	29788	2324.296418414101	7
0	29852	2329.597300452671	8
0	29882	2332.272810391403	9
0	29883	2332.356664337375	8
0	29907	2334.039661443541	7
0	29912	2334.141261718486	6
0	29927	2336.847805684393	5
0	29942	2337.523145261782	6
0	29992	2343.257759451516	5
0	30087	2348.84808316409	4
0	30101	2349.213303682505	3
0	30144	2353.229368509516	4
0	30169	2355.693522251876	3
0	30212	2359.386326110779	4
0	30228	2360.4061810136	5
0	30263	2363.182333544827	6
0	30268	2363.756463795044	5
0	30375	2370.575286602456	4
0	30383	2370.694101872099	3
0	30403	2371.722479036833	2
0	30435	2375.220683206279	1
0	30442	2376.361771245912	2
0	30445	2376.406100263795	3
0	30449	2376.736808935221	2
0	30462	2376.993553878211	1
0	30467	2377.028904213444	0
0	30623	2388.507678098037	1
0	30624	2388.670301837967	0
0	30777	2399.359241702318	1
0	30804	2402.612890386544	2
0	30815	2403.716280550753	3
0	30848	2406.765120700236	2
0	30868	2410.026426499126	1
0	30923	2416.703214306164	2
0	30971	2421.923194622926	1
0	30977	2422.033796339723	2
0	30982	2422.509208905617	1
0	30987	2423.081418540111	0
0	31070	2430.866821642404	1
0	31098	2432.794570380079	2
0	31104	2433.850451385408	3
0	31124	2438.951443983313	4
0	31129	2439.442331144005	3
0	31151	2440.775983737902	4
0	31166	2442.479875788713	5
0	31200	2445.492245786151	6
0	31205	2445.8190952306	5
0	31214	2447.098717068393	4
0	31281	2450.374001972839	5
0	31363	2455.991260590395	4
0	31371	2456.14650258654	3
0	31381	2456.586223486902	4
0	31416	2457.95415556687	5
0	31451	2460.785608476697	4
0	31463	2461.317985792882	3
0	31477	2462.315681211899	4
0	31480	2462.460512281546	5
0	31485	2462.731248315716	4
0	31499	2463.747377302479	5
0	31509	2464.106112147067	4
0	31516	2464.16861469904	5
0	31548	2466.235758630162	4
0	31572	2467.607131491478	3
0	31600	2470.216192171003	4
0	31618	2471.169343773589	3
0	31627	2471.393849705679	2
0	31659	2474.275163698031	1
0	31689	2474.830977265348	0
0	31736	2477.464038482261	1
0	31752	2478.241920607069	2
0	31768	2480.203029328926	1
0	31784	2480.379136299396	0
0	31794	2480.917945316324	1
0	31795	2481.402419924593	0
0	31816	2482.210567797602	1
0	31841	2485.584264075822	0
0	32449	2541.929570657963	1
0	32450	2541.934634045106	0
0	32468	2542.295895071069	1
0	32490	2543.741456303796	0
0	32524	2547.827672941621	1
0	32650	2557.82803020726	2
0	32657	2557.971938098313	3
0	32661	2558.847920165799	2
0	32681	2559.194727794867	3
0	32687	2559.688547310677	2
0	32691	2559.949752317733	1
0	32699	2560.106194612348	0
0	32883	2576.390400220465	1
0	32893	2576.821346741288	2
0	32900	2576.950803294038	3
0	32901	2577.294214334453	2
0	32906	2577.359538310791	1
0	32930	2579.149145991711	0
0	32985	2583.409408714517	1
0	32988	2583.562246563847	2
0	32991	2583.615508968058	3
0	32996	2584.402963252905	2
0	33001	2584.516383342836	1
0	33012	2584.939448115998	2
0	33013	2585.080025325265	1
0	33024	2585.52599607849	0
0	33186	2599.956776116838	1
0	33208	2602.775230885852	2
0	33218	2603.434260401674	1
0	33223	2603.537240888365	0
0	33256	2608.259974346383	1
0	33268	2609.058896787449	0
0	33301	2611.398030160211	1
0	33306	2612.943684385652	0
0	33313	2613.482565487968	1
0	33334	2614.464047864255	0
0	33340	2615.437601745405	1
0	33351	2615.841165965505	2
0	33401	2619.983481581882	3
0	33411	2621.133015814258	2
0	33427	2621.733573591639	1
0	33438	2621.86254823223	2
0	33449	2623.193856269316	3
0	33481	2625.325215991827	2
0	33501	2625.840675549089	1
0	33520	2627.540945407671	0
0	33547	2630.229411652385	1
0	33548	2630.327830491361	0
0	33575	2630.944718192422	1
0	33591	2631.750193170224	0
0	33946	2663.491179127202	1
0	33954	2664.225047494229	2
0	33961	2665.972167540992	3
0	33965	2667.006830832329	2
0	33972	2667.297030206125	3
0	33981	2667.775766844827	2
0	34025	2669.512546443379	1
0	34084	2674.518621425936	0
0	34273	2690.590592703729	1
0	34301	2693.247096969864	0
0	34320	2693.890120617446	1
0	34323	2693.966691319465	2
0	34326	2694.160344133683	3
0	34358	2696.347206673802	2
0	34366	2696.78735408854	1
0	34389	2697.847190713414	2
0	34400	2698.821625980049	1
0	34470	2706.087370213609	2
0	34471	2706.519838227941	1
0	34503	2709.319751171684	0
0	34514	2709.372284664709	1
0	34522	2709.705242108577	2
0	34528	2710.542713091254	3
0	34536	2710.6929056795	4
0	34572	2713.934444561203	3
0	34594	2715.485348258119	4
0	34595	2715.756488980247	3
0	34628	2718.492326700867	4
0	34634	2718.588425193681	3
0	34649	2718.996097235449	2
0	34687	2721.462404756438	3
0	34688	2722.278763546858	2
0	34696	2722.797253816809	1
0	34713	2724.458293452132	0
0	34893	2739.939632018387	1
0	34897	2740.275265137696	0
0	34904	2740.446985727685	1
0	34909	2741.145792686247	0
0	34939	2742.542250139985	1
0	34954	2744.335043816193	2
0	34959	2745.106107372508	1
0	34969	2745.521387364661	2
0	35003	2747.426416140215	1
0	35069	2749.899717316759	0
0	35079	2750.046115045731	1
0	35103	2750.651725954032	0
0	35284	2769.323358916472	1
0	35310	2771.828382997784	0
0	35372	2777.569513352291	1
0	35418	2780.922214344462	2
0	35423	2781.20004022414	1
0	35437	2782.403454157761	2
0	35466	2783.253377782816	1
0	35486	2784.057986976849	0
0	35500	2785.020949237876	1
0	35501	2785.124689134399	0
0	35511	2785.300749330193	1
0	35527	2786.733769677344	0
0	35771	2805.588023021443	1
0	35772	2805.81505661807	0
0	35786	2807.118474737562	1
0	35795	2807.875245330508	0
0	35822	2810.274789028122	1
0	35831	2811.761546220893	2
0	35844	2812.444054021404	1
0	35868	2814.146519902823	0
0	35878	2814.59125374045	1
0	35887	2815.688172624485	0
0	35919	2816.652586915069	1
0	35923	2816.9125167222	0
0	36084	2825.78795583241	1
0	36085	2826.166492465191	0
0	36410	2845.798421746558	1
0	36419	2846.308649874823	0
0	36496	2851.197054664267	1
0	36499	2851.551832427498	2
0	36540	2854.938358714858	1
0	36562	2855.896102126205	2
0	36576	2857.767397635857	1
0	36599	2858.489764842992	0
0	36606	2859.365589540559	1
0	36607	2859.708627459307	0
0	36677	2863.001925562624	1
0	36693	2864.586969147773	0
0	36711	2865.21343397127	1
0	36745	2868.753660334741	2
0	36782	2870.062810628809	3
0	36794	2872.02739645995	2
0	36811	2873.523788834725	3
0	36816	2875.076949945076	2
0	36837	2876.941081397782	3
0	36850	2877.534127412598	2
0	36862	2878.251037265654	3
0	36863	2878.269582045836	2
0	36891	2881.059024683173	1
0	36941	2884.761451313117	2
0	36953	2885.458711880714	3
0	36999	2889.8230741447	4
0	37057	2894.472699322651	5
0	37063	2895.358916258148	4
0	37067	2895.943567190034	3
0	37073	2896.438462894599	4
0	37083	2897.378262438139	3
0	37088	2897.495167987999	2
0	37156	2902.54293272715	3
0	37159	2902.657879505214	4
0	37160	2902.732945091537	3
0	37177	2902.918404030953	2
0	37200	2904.326548369243	3
0	37235	2905.805583934869	4
0	37247	2906.769926268756	3
0	37262	2907.188027575562	2
0	37271	2907.652745120225	1
0	37285	2909.022949956261	2
0	37302	2911.662715841186	3
0	37311	2912.306157170264	2
0	37316	2912.603129145572	1
0	37334	2914.176413679524	2
0	37339	2914.583320560215	1
0	37350	2914.673379382329	2
0	37351	2914.705028344044	1
0	37386	2916.812437544875	0
0	37854	2958.672998660518	1
0	37859	2959.656773434312	0
0	37893	2963.402847947397	1
0	37894	2963.797978167475	0
0	37901	2963.915442804016	1
0	37904	2964.092863874627	2
0	37921	2965.725163308927	3
0	37942	2968.631833339484	2
0	37975	2972.289402652785	1
0	37982	2972.301272670923	2
0	37987	2972.494660160695	1
0	37991	2972.520769912232	0
0	38008	2973.316040242732	1
0	38022	2974.567730094303	2
0	38025	2974.578460656667	3
0	38056	2977.505631226366	4
0	38057	2978.386812774601	3
0	38062	2978.559814659719	2
0	38070	2978.709085455136	1
0	38077	2978.816178964938	2
0	38108	2980.483275932735	3
0	38121	2981.151350182553	2
0	38125	2982.199339867465	1
0	38152	2983.388437361779	0
0	38178	2985.043699954234	1
0	38214	2989.467167450358	0
0	38221	2989.76996821432	1
0	38222	2990.900641728668	0
0	38280	2997.466884113676	1
0	38286	2997.971511038974	2
0	38304	2999.567888864763	1
0	38331	3001.037900570408	2
0	38340	3002.885583332725	1
0	38352	3003.707823540684	0
0	38363	3004.453657362432	1
0	38366	3004.765486455437	2
0	38391	3006.381722285141	3
0	38404	3007.592812711127	2
0	38417	3007.958637362261	1
0	38431	3008.732618689648	2
0	38459	3010.727333560328	3
0	38475	3011.688444253445	2
0	38498	3013.14401461329	1
0	38516	3013.860560370147	2
0	38517	3013.953371174987	1
0	38525	3014.486595253615	0
0	38724	3026.271699902597	1
0	38738	3027.760114433374	0
0	38744	3027.982516454519	1
0	38753	3028.678512887327	0
0	38830	3033.460980446298	1
0	38839	3033.953527546874	0
0	38906	3041.118541735804	1
0	38931	3041.924633336409	0
0	39016	3047.658628885248	1
0	39042	3049.176443113301	2
0	39079	3051.414886527819	1
0	39085	3051.482327563977	2
0	39086	3051.565890902217	1
0	39103	3052.925054265896	0
0	39704	3098.911246421417	1
0	39722	3101.729378207276	2
0	39739	3103.937890513972	1
0	39749	3104.340440725436	2
0	39752	3104.459532580521	3
0	39753	3105.255700938652	2
0	39762	3105.872229571563	1
0	39782	3107.90906076628	0
0	39801	3108.321058025439	1
0	39816	3109.08206827032	0
0	39858	3112.452030275515	1
0	39884	3114.097843969228	0
0	40007	3124.597591253679	1
0	40012	3125.048518666278	0
0	40087	3130.591612867888	1
0	40132	3134.772127263131	0
0	40417	3157.88785498378	1
0	40447	3160.605789652975	0
0	40473	3162.16827870741	1
0	40504	3164.13904812677	0
0	40535	3165.559840032191	1
0	40559	3167.298746707915	2
0	40578	3168.713622117143	3
0	40588	3169.515726320651	4
0	40591	3169.780800267529	5
0	40605	3170.299514827279	4
0	40621	3171.45047836311	3
0	40637	3172.355521097542	2
0	40645	3172.752232696027	1
0	40683	3176.096244294202	2
0	40684	3176.108579169615	1
0	40749	3179.274809463787	2
0	40766	3180.761659586698	1
0	40776	3181.289441622391	2
0	40777	3181.421350719381	1
0	40792	3182.17889434937	0
0	40814	3184.276765363531	1
0	40815	3184.280770489394	0
0	40915	3192.344063005218	1
0	40934	3193.529079667479	2
0	40999	3197.166071726109	3
0	41010	3197.465958601216	4
0	41022	3198.676741198641	5
0	41031	3199.041761784064	4
0	41055	3200.561472935077	3
0	41079	3201.877660616934	2
0	41099	3203.059651010587	1
0	41109	3203.571257088166	2
0	41112	3203.829254289918	3
0	41127	3205.211512006478	4
0	41130	3205.213782959005	5
0	41139	3206.267415864251	4
0	41155	3206.570115402265	3
0	41179	3207.835338107785	2
0	41187	3208.332083538567	1
0	41219	3210.613860530537	0
0	41307	3219.230194049341	1
0	41310	3219.261102140357	2
0	41321	3220.072161038808	1
0	41326	3220.20017086121	0
0	41348	3221.391194724497	1
0	41400	3225.852891623925	0
0	41419	3227.005787686812	1
0	41472	3231.950172919695	0
0	41483	3232.412863319763	1
0	41496	3232.835668994548	0
0	41505	3232.983606456535	1
0	41552	3235.191393909666	0
0	41628	3239.884026927804	1
0	41632	3240.030519413896	0
0	41685	3242.297281483928	1
0	41692	3242.509880068282	0
0	41699	3243.880014111203	1
0	41709	3244.779171158178	2
0	41716	3247.160387928171	3
0	41717	3247.275848101808	2
0	41748	3250.584078482964	3
0	41760	3252.321219168242	2
0	41767	3252.630546389378	3
0	41771	3253.792154707689	2
0	41791	3257.003853916051	1
0	41801	3258.047414665979	2
0	41860	3261.751563539001	1
0	41868	3261.953708129857	0
0	41890	3263.259608586401	1
0	41891	3263.585652354963	0
0	41921	3267.395911196859	1
0	41928	3267.881696029606	0
0	42320	3298.797072740762	1
0	42328	3299.34460793265	2
0	42331	3299.403330157979	3
0	42343	3299.840004759181	2
0	42368	3305.031369391826	1
0	42402	3307.054577783245	2
0	42419	3308.255514849443	1
0	42423	3308.377487963546	0
0	42531	3315.644434281232	1
0	42544	3316.399458844769	0
0	42555	3316.769561140264	1
0	42556	3316.858452262528	0
0	42563	3317.244842672275	1
0	42620	3320.840280607259	2
0	42624	3320.923960241084	1
0	42633	3321.063223287617	0
0	42887	3340.4452308454	1
0	42900	3341.976390270778	0
0	42907	3342.314804970184	1
0	42913	3342.560986380166	2
0	42916	3342.766756328099	3
0	42923	3343.101119094787	4
0	42941	3345.266430147223	5
0	42942	3345.79592446339	4
0	42953	3346.993635775162	5
0	42977	3349.714314136974	6
0	43004	3352.447297780801	7
0	43008	3352.907703422331	6
0	43030	3354.370512691637	7
0	43031	3354.547822517826	6
0	43035	3354.783966301833	5
0	43044	3355.029607190058	4
0	43095	3359.597429366007	3
0	43112	3361.504104212019	2
0	43148	3362.806810072156	1
0	43206	3366.413851318508	0
0	43304	3376.00082189359	1
0	43307	3376.033038723736	2
0	43323	3376.679709539392	3
0	43327	3377.477519171184	2
0	43337	3377.905157299624	3
0	43441	3387.536680159114	4
0	43450	3388.568666638969	5
0	43453	3389.823211064045	6
0	43456	3389.954657303325	7
0	43471	3390.946640710389	8
0	43474	3391.312102871906	9
0	43484	3391.981804583257	8
0	43527	3395.065700130094	7
0	43532	3395.215311808366	6
0	43565	3396.957660522994	5
0	43584	3398.061526041303	4
0	43597	3398.708116729899	3
0	43625	3400.861869322738	2
0	43635	3401.951043302696	3
0	43667	3403.286802281445	2
0	43681	3404.066836436099	3
0	43684	3404.190218287984	4
0	43724	3407.688364964088	5
0	43725	3408.056002773635	4
0	43745	3408.813222665418	3
0	43767	3411.855641088748	2
0	43774	3412.359242553528	3
0	43779	3412.537227091768	2
0	43812	3415.353783049586	3
0	43817	3415.682128211657	2
0	43824	3415.720055595443	3
0	43853	3420.31804939874	2
0	43863	3421.186027270846	3
0	43872	3421.775787825667	2
0	43878	3421.927402254557	3
0	43887	3422.197058480993	2
0	43909	3424.20582318061	3
0	43925	3424.707339506356	4
0	43950	3426.523499506271	3
0	43961	3427.172223444947	2
0	43966	3427.957608303678	1
0	43987	3428.693587016341	0
0	44268	3448.715035187811	1
0	44333	3454.561738682878	2
0	44347	3455.851761660025	1
0	44377	3457.073732517719	2
0	44384	3457.470879546683	3
0	44448	3459.743358765113	4
0	44469	3461.171370340844	3
0	44480	3462.901627588434	4
0	44497	3464.262428943186	3
0	44577	3469.708130878093	2
0	44606	3472.074340154463	3
0	44607	3472.216703091794	2
0	44633	3473.8667317457	3
0	44666	3475.495819201889	2
0	44673	3475.602485124285	1
0	44723	3481.050049797507	2
0	44739	3482.069317650816	3
0	44759	3483.194751900939	2
0	44769	3483.561871826257	1
0	44784	3485.367762846175	0
0	44837	3491.149772616823	1
0	44874	3493.152883534675	2
0	44875	3493.207388692455	1
0	44909	3494.782099533572	0
0	45203	3515.362892885047	1
0	45241	3518.127029228261	2
0	45269	3519.371068965574	3
0	45274	3519.743638283807	2
0	45301	3522.800843674074	1
0	45315	3523.649819175101	0
0	45389	3529.096685636182	1
0	45431	3531.518484271562	2
0	45455	3532.281649117399	1
0	45460	3532.340913745509	0
0	45679	3552.04160105908	1
0	45680	3552.148985082121	0
0	45977	3579.862772100155	1
0	45994	3581.032599966193	0
0	46078	3589.14978903863	1
0	46079	3589.204607635701	0
0	46094	3589.860591811951	1
0	46124	3592.77901347326	2
0	46125	3593.767559989742	1
0	46142	3595.072311742073	0
0	46155	3595.439935971502	1
0	46188	3597.397986475206	2
0	46225	3600.566524901223	1
0	46237	3601.133559281155	0
0	46717	3649.765350296378	1
0	46724	3650.200220219998	2
0	46733	3651.394640098921	1
0	46790	3657.333322800188	2
0	46793	3657.370811412681	3
0	46796	3657.674645601512	4
0	46801	3660.090216023594	3
0	46831	3661.517070228512	2
0	46844	3661.80194691479	3
0	46895	3665.28466038797	4
0	46923	3666.750523892637	5
0	46928	3667.132213465268	4
0	46940	3667.957509000462	3
0	46948	3668.685469405052	2
0	46991	3671.290125586401	3
0	46992	3671.319402341263	2
0	47004	3672.543498117478	1
0	47026	3673.943813040327	2
0	47031	3674.166993488137	1
0	47053	3675.232554669892	2
0	47062	3675.323015545064	1
0	47086	3676.457510404342	0
0	47096	3676.815071507151	1
0	47105	3677.067370032353	0
0	47163	3679.006179082003	1
0	47190	3680.265477217487	2
0	47208	3681.670920055982	3
0	47215	3682.811906521534	4
0	47216	3682.955241572738	3
0	47257	3685.160536956623	2
0	47306	3689.691468719524	3
0	47309	3690.23965807192	4
0	47328	3692.118773765718	5
0	47368	3693.989013962968	6
0	47382	3694.777815014385	7
0	47444	3700.799841650155	8
0	47472	3702.551299100722	9
0	47476	3704.071294901887	8
0	47490	3704.720427890038	9
0	47495	3704.847946788789	8
0	47502	3705.261934783053	9
0	47520	3707.878908481998	8
0	47555	3710.722913006406	7
0	47614	3715.03469200916	8
0	47655	3718.69083096269	9
0	47658	3718.70326901857	10
0	47693	3723.202229070374	11
0	47721	3725.484499189645	12
0	47730	3726.748219959939	11
0	47735	3726.758064019073	10
0	47759	3727.706809922751	9
0	47765	3728.09063633456	10
0	47766	3728.473773487686	9
0	47830	3731.745792359991	8
0	47856	3732.460233164346	9
0	47894	3734.502455003792	8
0	47910	3734.882118534423	7
0	47916	3734.997924376567	8
0	47921	3735.191990899968	7
0	47925	3735.298465692763	6
0	47929	3735.560621355613	5
0	47937	3735.837038249821	4
0	47976	3739.975093103659	3
0	48010	3742.05762694671	4
0	48040	3744.402415956734	5
0	48052	3744.743071519338	6
0	48098	3747.327576497518	7
0	48102	3747.902576061047	6
0	48123	3749.775858298095	5
0	48128	3749.818775187268	4
0	48143	3750.942587281639	3
0	48147	3751.032003896843	2
0	48162	3752.218982156714	3
0	48201	3755.618938632367	2
0	48210	3756.002826970366	1
0	48253	3761.134135660675	0
0	48454	3775.517617509356	1
0	48455	3776.092209991449	0
0	48474	3776.499177417182	1
0	48480	3776.637695378476	2
0	48506	3778.869014526913	3
0	48511	3779.755579910585	2
0	48561	3783.156090437218	3
0	48564	3783.236264671058	4
0	48586	3787.286400639263	3
0	48608	3791.649443518529	4
0	48615	3793.935426644411	5
0	48618	3794.206097513974	6
0	48647	3796.652535745551	5
0	48656	3796.931029642907	4
0	48698	3799.099126534925	5
0	48699	3799.927633298253	4
0	48737	3803.221700328986	3
0	48749	3803.484644995769	2
0	48769	3804.37109060133	1
0	48790	3805.840180561276	0
0	48854	3809.358017642245	1
0	48881	3811.935797835109	0
0	49021	3825.713371475157	1
0	49039	3828.471815913476	2
0	49066	3832.976214848937	3
0	49103	3836.05304589108	2
0	49150	3838.591304496115	3
0	49173	3840.102544441827	2
0	49185	3840.651619050066	3
0	49197	3841.830534055913	2
0	49223	3843.647133418351	3
0	49270	3847.265389784225	4
0	49281	3848.186691982045	5
0	49290	3848.989119023279	4
0	49307	3849.700509721959	3
0	49320	3851.047731540391	2
0	49331	3851.408165344454	1
0	49343	3851.949356812337	0
0	49519	3868.025921978287	1
0	49524	3868.729105454811	0
0	50051	3916.364975469342	1
0	50052	3917.494636180785	0
0	50059	3917.570729191182	1
0	50064	3918.375298049203	0
0	50486	3957.61375129149	1
0	50489	3958.066228000319	2
0	50504	3958.479597954945	3
0	50512	3959.859309424422	4
0	50516	3960.783290047773	3
0	50521	3960.969167288026	2
0	50526	3961.719804266245	1
0	50547	3963.050656820059	0
0	50794	3980.200023391026	1
0	50801	3980.696827404063	0
0	50868	3986.419755959886	1
0	50869	3986.541217122115	0
0	50951	3994.000866536663	1
0	50971	3995.254214383247	2
0	50977	3995.774561727669	3
0	50985	3996.18181362878	4
0	50996	3996.736993175621	3
0	51000	3997.082397532421	2
0	51013	3997.999096447701	1
0	51028	3999.382284252511	2
0	51031	3999.93245472915	3
0	51045	4000.689605868556	4
0	51067	4002.314694820912	3
0	51127	4004.827843754519	2
0	51214	4009.274974584963	1
0	51223	4009.409447067927	0
0	51330	4015.223238141532	1
0	51350	4017.248690563781	2
0	51353	4018.747773041907	3
0	51405	4021.605194144915	4
0	51414	4023.236576219195	3
0	51426	4024.4140095321	2
0	51523	4032.404883504622	3
0	51549	4033.979431918369	4
0	51564	4035.28781222092	5
0	51570	4035.567110136023	4
0	51623	4039.160185287805	5
0	51643	4042.73740760636	6
0	51656	4043.862312222972	5
0	51680	4045.198644089036	6
0	51700	4047.480268107006	5
0	51752	4050.027547297614	4
0	51775	4051.231173855472	3
0	51785	4051.947841845698	4
0	51809	4053.171151170646	5
0	51825	4054.111546149719	4
0	51842	4055.180293333734	3
0	51857	4055.57362562155	2
0	51880	4057.891124454553	3
0	51883	4058.931356067701	4
0	51903	4061.134090166673	3
0	51934	4065.86226839099	2
0	51949	4066.660816644302	3
0	51959	4067.472519379396	4
0	51962	4068.51310961374	5
0	51965	4068.549834412075	6
0	52002	4070.573836923408	7
0	52016	4072.492454105013	8
0	52033	4073.608278976256	7
0	52045	4073.981005402133	8
0	52069	4076.808597455485	7
0	52075	4076.815113615168	8
0	52120	4080.62655094107	7
0	52130	4080.910200339644	8
0	52139	4081.510574936885	7
0	52170	4083.362439713741	8
0	52171	4083.717967695735	7
0	52175	4083.796761562573	6
0	52222	4085.859709825198	5
0	52243	4087.344640312099	4
0	52262	4088.004139118009	3
0	52338	4092.653513031781	2
0	52371	4094.053393970292	3
0	52384	4097.812438245753	2
0	52391	4098.121767353427	3
0	52409	4100.015162092911	4
0	52410	4100.52693667565	3
0	52421	4101.322370286439	2
0	52426	4101.648290804318	1
0	52457	4105.003012696043	0
0	52467	4106.298096137456	1
0	52473	4106.435838147511	0
0	52581	4111.94993145694	1
0	52608	4114.998646159651	2
0	52628	4116.131056061326	1
0	52656	4119.424162134162	0
0	52671	4119.625152620822	1
0	52672	4119.840886964397	0
0	52694	4122.26650434785	1
0	52704	4123.862916824448	2
0	52717	4125.749607328808	1
0	52722	4126.232306773538	0
0	52961	4148.629540103829	1
0	52968	4148.947231651871	2
0	52969	4149.208197115116	1
0	52975	4149.410102819424	2
0	53033	4154.145270212872	1
0	53048	4154.712350939888	0
0	53295	4176.203961919939	1
0	53301	4176.789077074261	2
0	53305	4177.414662024915	1
0	53310	4177.902066447511	0
0	53431	4186.619275825483	1
0	53432	4186.675155709507	0
0	53616	4202.276924534092	1
0	53621	4203.197089354505	0
0	53902	4221.36697916126	1
0	53907	4221.470058518654	0
0	54152	4241.634904490687	1
0	54157	4241.730176373228	0
0	54207	4246.228108096197	1
0	54253	4249.628016846588	2
0	54307	4255.672620297019	1
0	54313	4256.083381606215	2
0	54330	4257.241384532303	1
0	54360	4260.234795813957	2
0	54380	4260.799905011581	3
0	54392	4261.400718435108	4
0	54397	4261.863977404377	3
0	54454	4264.492953564565	4
0	54455	4264.497058618606	3
0	54461	4264.5801407299	4
0	54462	4264.890977536845	3
0	54466	4265.229111286784	2
0	54506	4267.577451561634	3
0	54509	4268.190297751032	4
0	54516	4268.317138273237	5
0	54525	4268.696444846014	4
0	54569	4272.022396659704	3
0	54591	4272.709990944498	2
0	54626	4274.694232414499	1
0	54645	4275.733358755903	2
0	54673	4277.115017033031	1
0	54677	4278.144424666205	0
0	54684	4278.348144061392	1
0	54721	4280.478147778946	0
0	54819	4290.376995036095	1
0	54834	4292.589143909893	2
0	54835	4292.627483167958	1
0	54840	4292.698015647012	0
0	54892	4295.015093673163	1
0	54893	4295.050629545557	0
0	54911	4296.101042870807	1
0	54936	4297.717336135271	0
0	55167	4317.884600466403	1
0	55170	4317.971657514761	2
0	55207	4321.548386529356	1
0	55254	4325.14946091347	0
0	55264	4325.281184404574	1
0	55277	4326.66541107331	0
0	55492	4344.308830525179	1
0	55493	4344.585051843727	0
0	55550	4350.006653166679	1
0	55551	4351.172440380938	0
0	55567	4351.368238077021	1
0	55568	4351.759334583702	0
0	55687	4362.028889620328	1
0	55709	4364.624379020789	0
0	55727	4366.011424531617	1
0	55755	4367.446598039803	0
0	55762	4367.734218660086	1
0	55782	4370.589530769079	0
0	55804	4371.544447849768	1
0	55805	4371.713816989765	0
0	55812	4372.114802318032	1
0	55821	4373.371486877957	0
0	55984	4385.987536462548	1
0	56016	4389.266383565674	0
0	56096	4395.311773154961	1
0	56140	4398.108739687466	0
0	56206	4401.55524891414	1
0	56230	4404.819429811361	2
0	56238	4406.467207715505	1
0	56248	4407.689035357799	2
0	56249	4407.854994331448	1
0	56277	4409.273404673582	2
0	56299	4410.743424959364	3
0	56300	4411.06537152808	2
0	56317	4414.258641551206	1
0	56335	4416.580432493296	0
0	56365	4418.759420829139	1
0	56385	4421.126094849561	2
0	56386	4421.208819667796	1
0	56390	4421.496246673945	0
0	56416	4423.435242178742	1
0	56425	4423.825472129303	0
0	56446	4425.782221118009	1
0	56474	4427.4872675131	2
0	56492	4427.992815950239	1
0	56502	4429.443184304862	2
0	56511	4429.850071656851	1
0	56544	4431.251317634905	2
0	56547	4431.641396567884	3
0	56615	4437.870817875047	2
0	56637	4438.567838778632	1
0	56641	4438.630845574444	0
0	57076	4472.576919963536	1
0	57100	4475.193917500072	0
0	57169	4480.555944307493	1
0	57175	4482.446571419164	0
0	57225	4485.762805520799	1
0	57288	4490.099538347204	0
0	57352	4495.186223413665	1
0	57357	4495.244357447557	0
0	57462	4501.730217269108	1
0	57478	4502.532428308324	2
0	57491	4503.596606833696	1
0	57497	4504.100294886846	2
0	57522	4505.720585390014	1
0	57534	4506.376467637216	0
0	57644	4514.344775526779	1
0	57645	4514.432291277674	0
0	57665	4515.933038094903	1
0	57694	4517.535212952854	2
0	57705	4518.257475823959	3
0	57723	4518.967828087146	2
0	57736	4519.675045030076	3
0	57766	4522.579233947491	4
0	57767	4522.75486204259	3
0	57782	4523.399916607019	4
0	57791	4524.812226993203	3
0	57844	4529.039238126033	2
0	57862	4529.544847465531	3
0	57873	4529.783701208087	4
0	57909	4534.788453887562	3
0	57922	4535.226244202238	2
0	57942	4536.14478341201	1
0	57966	4537.079963472859	2
0	57972	4537.603189180222	1
0	58067	4545.639518530388	2
0	58107	4547.71858459569	1
0	58119	4548.242640363371	0
0	58184	4553.863011563281	1
0	58185	4554.371683671266	0
0	58356	4574.217498086162	1
0	58367	4575.441509155717	2
0	58372	4575.933956672488	1
0	58392	4577.179022271334	0
0	58457	4581.968043126198	1
0	58473	4582.803000295748	2
0	58488	4584.139624799617	3
0	58513	4586.558761576355	2
0	58550	4589.424682985795	3
0	58562	4592.354542132403	2
0	58576	4592.839191459949	1
0	58584	4593.130914393867	0
0	58606	4594.562984504394	1
0	58631	4596.677815891616	0
0	58680	4601.32735530692	1
0	58719	4603.365594937035	2
0	58761	4606.07081542939	1
0	58797	4608.72161768112	0
0	58860	4615.879483114062	1
0	58898	4617.96608359456	2
0	58912	4619.757523505819	1
0	58923	4620.527220922698	2
0	58934	4621.244806411157	1
0	58959	4622.64356823132	0
0	59092	4635.96771365082	1
0	59097	4636.141650575558	0
0	59111	4636.753215368897	1
0	59117	4639.705463644194	0
0	59130	4640.441829059696	1
0	59137	4642.574517921652	2
0	59143	4642.696452720328	1
0	59151	4643.307171112935	0
0	59284	4653.708383965914	1
0	59301	4654.234775095608	0
0	59428	4665.823803929972	1
0	59444	4667.292925617006	2
0	59447	4667.686886401746	3
0	59453	4668.961816134702	4
0	59463	4669.083367661766	3
0	59480	4670.367224618492	4
0	59493	4672.789420543283	3
0	59518	4674.613188009298	2
0	59558	4677.383892348839	1
0	59606	4680.665316090567	0
0	59900	4699.69090854974	1
0	59910	4699.986297013519	2
0	59924	4701.032729704209	3
0	59946	4701.823195757475	2
0	59973	4702.601461978643	3
0	59974	4702.868092078801	2
0	60025	4706.728621763247	1
0	60042	4708.525560247991	0
0	60115	4714.458327191441	1
0	60126	4714.693815807668	2
0	60173	4717.98253081322	3
0	60197	4718.837019494655	2
0	60204	4719.056374061194	3
0	60217	4720.082098007414	2
0	60233	4721.380535373463	1
0	60241	4721.432474635809	0
0	60514	4742.613920113216	1
0	60515	4742.71438807347	0
0	60536	4743.49524310432	1
0	60542	4743.549120697992	0
0	61098	4790.343450261024	1
0	61101	4790.514744751331	2
0	61114	4791.366048068701	1
0	61119	4791.455986338439	0
0	61304	4804.035693301965	1
0	61314	4804.367648344318	0
0	61351	4807.83675691269	1
0	61358	4808.440460465681	2
0	61382	4812.453099518775	1
0	61409	4814.40610609096	2
0	61438	4816.771240593084	1
0	61484	4819.455828136345	2
0	61485	4819.723213142931	1
0	61495	4820.895113115692	2
0	61503	4821.149733429679	3
0	61509	4821.523095472421	2
0	61522	4823.260420861851	3
0	61561	4827.585493909544	2
0	61577	4828.582039851172	1
0	61584	4828.668031886989	2
0	61589	4829.846788419382	1
0	61610	4831.446654982138	2
0	61634	4833.93738689444	3
0	61637	4833.997875287799	4
0	61656	4834.990485707213	5
0	61659	4835.126042796535	6
0	61666	4836.26146639249	7
0	61703	4841.20292073528	6
0	61764	4845.003571411357	7
0	61772	4845.634872384156	8
0	61779	4846.13149116176	9
0	61784	4846.896875452206	8
0	61810	4848.199413324661	9
0	61819	4849.495928404238	8
0	61824	4849.5104048808	7
0	61840	4850.845942946445	6
0	61844	4851.864177713049	5
0	61930	4860.731539138196	4
0	61935	4860.732550474409	3
0	61959	4862.874201878299	2
0	61966	4862.879881945413	3
0	61984	4864.081433024718	4
0	61994	4864.500519828056	3
0	61998	4864.580595501045	2
0	62016	4865.133294162647	3
0	62028	4867.69672300876	2
0	62073	4871.081304675138	3
0	62119	4875.370042602228	2
0	62129	4875.917974766014	3
0	62132	4876.350232535919	4
0	62184	4880.118647666826	5
0	62205	4882.23763172371	4
0	62230	4882.978255484086	5
0	62233	4883.148274453292	6
0	62246	4884.37446061754	5
0	62254	4885.393990192476	4
0	62281	4887.312902533942	3
0	62353	4890.976490626685	4
0	62371	4892.247957252866	5
0	62412	4895.575474600249	4
0	62427	4897.934990804557	3
0	62453	4899.106585551878	2
0	62464	4899.279467194443	3
0	62480	4900.030835696975	2
0	62503	4903.010400361706	1
0	62508	4903.294998472871	0
0	62576	4909.240653173436	1
0	62597	4912.133221145106	0
0	62690	4921.459739620963	1
0	62712	4922.555533377858	0
0	62725	4923.017614948015	1
0	62748	4923.853581512342	2
0	62771	4926.203268384427	3
0	62813	4930.151158017087	4
0	62820	4930.870097444729	5
0	62827	4933.393374334622	6
0	62832	4934.805974962869	5
0	62837	4934.914386596967	4
0	62847	4936.180792153935	5
0	62872	4937.468270424618	4
0	62877	4937.473350354897	3
0	62887	4937.745882826233	4
0	62894	4937.790628672736	5
0	62910	4939.429253131765	4
0	62926	4940.430256312782	3
0	62946	4942.646060808629	2
0	62978	4945.308334023663	1
0	63016	4946.536287912511	2
0	63025	4946.938444200525	1
0	63034	4947.480386536726	2
0	63035	4948.137647145433	1
0	63074	4950.647123873291	0
0	63282	4967.233943318886	1
0	63299	4968.683489079038	0
0	63442	4980.222687855418	1
0	63445	4980.305248354042	2
0	63473	4982.137118993254	3
0	63671	4993.685894521214	4
0	63692	4994.823474419998	3
0	63698	4995.450567476601	4
0	63703	4996.014434272396	3
0	63707	4996.249600633586	2
0	63713	4996.257375428023	3
0	63738	4997.16878427804	2
0	63746	4998.094495025244	1
0	63751	4998.201905702509	0
0	63862	5007.237887263925	1
0	63865	5007.333836184226	2
0	63884	5009.095006197765	3
0	63890	5009.179069045946	4
0	63898	5010.578472482441	5
0	63923	5014.62471870408	4
0	63927	5015.379172608564	3
0	63958	5017.937922021223	4
0	63979	5019.453708475351	3
0	63986	5019.458269298803	4
0	63996	5019.851560800327	5
0	64069	5023.754894927847	6
0	64097	5025.776010687784	7
0	64132	5027.972086242602	8
0	64141	5028.642667839687	7
0	64156	5029.166647404115	8
0	64191	5030.925213380715	9
0	64196	5031.205825638448	8
0	64200	5031.309736850935	7
0	64225	5031.894244309364	8
0	64229	5032.73928774953	7
0	64245	5033.759983473666	6
0	64257	5035.078330433609	5
0	64278	5035.937259451913	4
0	64283	5036.239740781965	3
0	64328	5039.339943980127	4
0	64329	5039.643591086844	3
0	64340	5039.867823433592	4
0	64352	5040.650428529587	3
0	64398	5044.522928950713	4
0	64410	5045.675508719732	3
0	64422	5046.475205728603	2
0	64434	5047.534297561683	3
0	64435	5047.948724512817	2
0	64469	5050.253306461247	1
0	64477	5051.239640990465	0
0	64882	5087.801280293614	1
0	64936	5094.650678528036	0
0	65084	5107.757070177833	1
0	65087	5107.93400073426	2
0	65116	5110.018331416473	3
0	65138	5112.301404322986	2
0	65178	5115.420551421415	1
0	65203	5116.679089679469	0
0	65669	5151.189751712428	1
0	65678	5152.218384952881	0
0	65777	5157.232768870628	1
0	65806	5158.702896230934	2
0	65838	5161.533500728597	1
0	65850	5162.227156201496	0
0	65900	5165.967655727538	1
0	65922	5168.488791514677	0
0	66063	5181.03776471331	1
0	66079	5182.550829064905	2
0	66086	5182.985347324126	3
0	66091	5183.222293751964	2
0	66100	5183.440483806963	1
0	66154	5188.062519153654	0
0	66481	5221.988371661861	1
0	66504	5225.277408234769	0
0	66640	5236.508611963018	1
0	66657	5237.638424170282	2
0	66678	5238.603554021863	1
0	66701	5240.168354997131	0
0	66711	5241.961262363819	1
0	66727	5244.644830726352	0
0	66762	5247.280522199066	1
0	66773	5248.29350481892	2
0	66781	5248.517879609255	3
0	66801	5250.75870081869	2
0	66834	5254.108453065908	3
0	66846	5254.870624286571	4
0	66856	5255.428712695297	3
0	66905	5257.773964982995	2
0	66925	5259.25653105781	1
0	66955	5260.379957752736	2
0	66977	5261.520320537534	3
0	67015	5263.451826746692	4
0	67050	5267.200141810815	5
0	67058	5267.609987251453	4
0	67065	5267.699598261598	5
0	67129	5272.902142759011	4
0	67136	5273.718894207423	5
0	67171	5276.597643159108	6
0	67191	5279.356836923916	5
0	67214	5280.585170022826	6
0	67215	5280.643638431121	5
0	67238	5282.088466500445	6
0	67250	5283.671537299783	5
0	67289	5286.023501843655	4
0	67294	5286.878779518553	3
0	67302	5286.97144811395	2
0	67316	5288.150610408281	3
0	67380	5294.42882298322	2
0	67391	5295.48918042084	3
0	67400	5296.506457323807	2
0	67438	5298.468433043517	3
0	67446	5299.281642978897	2
0	67479	5302.188132721482	1
0	67487	5303.287203103029	0
0	67549	5306.406566409838	1
0	67570	5306.963791516996	0
0	67595	5307.7215506675	1
0	67596	5307.930832941401	0
0	67735	5321.615359899693	1
0	67745	5322.355854578285	0
0	67810	5326.93578092214	1
0	67856	5329.303336687512	2
0	67857	5330.12856944881	1
0	67870	5330.565436872164	0
0	67950	5334.203081896433	1
0	67982	5336.510461483994	0
0	68280	5359.730383413717	1
0	68283	5360.607901882941	2
0	68286	5360.91517040497	3
0	68298	5362.20874802734	4
0	68303	5362.646393924993	3
0	68332	5363.262725048367	4
0	68335	5363.526068462926	5
0	68370	5367.830033573259	6
0	68373	5368.023056779116	7
0	68374	5368.656433536577	6
0	68386	5368.965349421053	5
0	68397	5370.462560323649	4
0	68413	5372.033195811268	3
0	68462	5374.176597213684	2
0	68546	5377.412986700666	1
0	68570	5381.550874632812	0
0	68878	5415.245743406924	1
0	68881	5415.556551969207	2
0	68887	5416.038018569955	3
0	68894	5416.940412733563	4
0	68903	5418.536430526534	3
0	68921	5419.553889592036	4
0	68931	5421.554304539388	3
0	68940	5422.495342485356	2
0	68946	5422.581447073036	3
0	68964	5422.910555277556	4
0	68967	5423.144644513792	5
0	68968	5424.02446413902	4
0	68990	5425.621082884854	5
0	68998	5426.19691785466	6
0	69001	5426.601984724653	7
0	69008	5426.713716346815	8
0	69015	5427.27924316989	9
0	69038	5428.689960261663	10
0	69041	5428.77449745345	11
0	69088	5431.614570540677	10
0	69136	5435.671325462865	11
0	69146	5438.047439099428	12
0	69163	5439.619090128579	11
0	69169	5440.111229222326	12
0	69198	5442.09213118784	11
0	69233	5444.264865303702	12
0	69245	5444.952885723817	11
0	69253	5445.924977684323	10
0	69302	5449.272118483693	9
0	69341	5450.133118094427	8
0	69365	5451.301853063899	7
0	69393	5452.582539125929	6
0	69409	5453.342185961286	5
0	69429	5454.861992985995	4
0	69445	5455.410285054535	3
0	69454	5455.539474089315	2
0	69486	5458.018497425345	1
0	69494	5458.11510634198	0
0	69636	5467.192161427616	1
0	69650	5468.074505116463	0
0	69688	5472.534482446761	1
0	69703	5473.078876678293	2
0	69724	5474.156376076624	3
0	69731	5474.48039157966	4
0	69744	5476.532088521479	3
0	69751	5477.698268753809	4
0	69779	5479.410990433705	3
0	69791	5480.428752655838	2
0	69820	5481.330252231528	1
0	69828	5481.646517216172	0
0	69976	5495.550362228017	1
0	69983	5496.428897282857	2
0	69986	5497.451447649478	3
0	70004	5499.778315957367	4
0	70018	5500.500833630257	3
0	70037	5501.490420182802	4
0	70042	5501.754366812936	3
0	70061	5503.934562234214	2
0	70078	5505.339396752614	3
0	70079	5505.714276697932	2
0	70154	5510.711830312011	1
0	70169	5511.193268949758	0
0	70323	5524.120177300547	1
0	70341	5525.519536950032	2
0	70382	5528.470686926088	1
0	70400	5529.314080577454	2
0	70419	5529.862548437925	3
0	70424	5532.551755188793	2
0	70438	5532.896883574293	3
0	70471	5537.977817701384	2
0	70479	5538.327239081513	1
0	70499	5540.013044278117	0
0	70556	5544.57571250596	1
0	70600	5546.730555591256	0
0	70623	5548.3821329117	1
0	70624	5548.422700862736	0
0	70630	5548.655631275933	1
0	70633	5549.619610631734	2
0	70650	5551.449915862949	1
0	70662	5552.511580568445	0
0	70751	5561.71956316836	1
0	70758	5561.980396889681	2
0	70782	5566.549876993391	1
0	70795	5566.815370425989	0
0	70802	5567.202436998281	1
0	70820	5569.006319891218	2
0	70867	5571.672493072802	3
0	70880	5572.540051708964	2
0	70911	5574.414780239868	3
0	70967	5581.543529458457	2
0	70987	5582.910520470499	1
0	71027	5586.502054217802	0
0	71072	5591.276653155618	1
0	71073	5591.379697051745	0
0	71441	5623.898621718086	1
0	71453	5624.822273436161	0
0	71475	5625.679402213865	1
0	71501	5627.288452126368	2
0	71504	5627.397950720413	3
0	71543	5630.345350526926	4
0	71568	5633.070508674612	3
0	71636	5636.456986962696	4
0	71643	5636.815328628661	5
0	71646	5636.899776562495	6
0	71658	5638.352960752954	5
0	71663	5638.683473808768	4
0	71718	5644.733861384647	3
0	71735	5645.535184444913	2
0	71778	5649.409977468705	1
0	71847	5652.834037003339	2
0	71852	5653.885945613607	1
0	71860	5655.372062245524	0
0	71971	5662.368335303114	1
0	72013	5663.756595580381	2
0	72028	5664.971581910426	3
0	72029	5664.979054003527	2
0	72089	5669.884281975039	1
0	72096	5670.052401512745	2
0	72115	5671.151973881987	3
0	72118	5671.188129431961	4
0	72170	5675.072395931952	3
0	72191	5676.116319516767	4
0	72210	5677.318529570726	5
0	72226	5679.914400412622	6
0	72232	5681.219259637113	7
0	72239	5681.799360372402	8
0	72240	5681.903960609108	7
0	72248	5682.768905831823	6
0	72263	5682.998919551405	7
0	72273	5683.68786920542	8
0	72274	5684.452426205658	7
0	72281	5684.657602084292	8
0	72287	5684.732997532737	9
0	72292	5685.414704093383	8
0	72303	5685.878993001449	9
0	72320	5687.064603950018	8
0	72336	5687.451987337679	7
0	72361	5689.206034925054	6
0	72365	5689.598651756876	5
0	72375	5689.684567666143	6
0	72392	5690.55716477708	5
0	72410	5692.515427940246	6
0	72415	5692.841574857586	5
0	72436	5693.527309014962	4
0	72456	5694.31712941542	5
0	72473	5695.053386821547	4
0	72492	5695.764593875321	5
0	72504	5696.41980823869	6
0	72511	5696.864600816673	5
0	72522	5697.182228896531	6
0	72523	5697.680992029471	5
0	72529	5698.041096567155	6
0	72533	5698.516305660692	5
0	72548	5698.955629234485	6
0	72603	5701.753616705707	7
0	72614	5702.455867865392	8
0	72632	5702.835898901428	7
0	72665	5705.092453019974	8
0	72678	5706.807520630106	7
0	72694	5707.576278554736	6
0	72718	5708.739938595781	5
0	72738	5710.441417524557	4
0	72746	5711.124184201444	3
0	72785	5712.893919697667	2
0	72830	5716.666979371804	3
0	72843	5717.014327997099	2
0	72848	5717.27391647958	1
0	72866	5718.522188026009	2
0	72892	5721.407918601915	3
0	72905	5724.100540968643	2
0	72935	5725.661960065081	1
0	72948	5726.092226086302	0
0	72982	5728.03873970145	1
0	73040	5733.242838146891	0
0	73177	5751.187864567744	1
0	73201	5752.756364211103	0
0	73263	5757.543728087185	1
0	73286	5758.58150786534	2
0	73308	5760.946530484425	1
0	73317	5762.140162917483	0
0	73489	5772.928064030787	1
0	73500	5773.138341147801	2
0	73501	5773.690160258989	1
0	73527	5775.383123129271	0
0	73643	5781.453697594892	1
0	73646	5781.604912151505	2
0	73655	5781.687456877238	1
0	73663	5781.810101920501	0
0	73684	5782.655653033878	1
0	73789	5787.170531433524	2
0	73839	5792.800627880935	3
0	73844	5793.593423759249	2
0	73862	5794.189051709435	3
0	73863	5794.787985427849	2
0	73871	5795.043086363527	1
0	73891	5796.044295118952	0
0	73969	5803.036268979236	1
0	73978	5804.336244217925	0
0	74000	5805.621652785525	1
0	74026	5808.681416182643	0
0	74269	5825.860039705582	1
0	74270	5826.336510682274	0
0	74282	5827.410054261306	1
0	74301	5829.286788344617	0
0	74328	5830.341497406502	1
0	74350	5832.367522324682	2
0	74359	5833.062061532424	1
0	74364	5833.133677006	0
0	74754	5862.525523783102	1
0	74808	5866.256005394216	2
0	74841	5868.981595120036	1
0	74845	5869.171437226989	0
0	74889	5872.565550876954	1
0	74890	5872.759781521574	0
0	74900	5873.622649309095	1
0	74901	5873.919535224889	0
0	74908	5874.777318668966	1
0	74921	5875.841636753853	0
0	74987	5879.46824395404	1
0	75006	5880.815621049551	2
0	75050	5885.334942668134	1
0	75073	5886.852928921877	0
0	75086	5887.660892712881	1
0	75087	5887.691487458725	0
0	75124	5889.977795839437	1
0	75136	5890.804910130364	0
0	75143	5891.268714939266	1
0	75180	5893.285464738305	2
0	75189	5894.253166069445	1
0	75195	5894.330105540513	2
0	75198	5895.109326926777	3
0	75199	5895.15152076056	2
0	75217	5896.294268107236	3
0	75240	5897.996640672164	4
0	75241	5898.594247583565	3
0	75282	5900.338315037439	2
0	75330	5902.818754094569	3
0	75350	5904.363188386231	2
0	75358	5904.556229763124	1
0	75374	5904.904410602854	0
0	75457	5912.487284047809	1
0	75462	5912.79019324494	0
0	75968	5956.936868763795	1
0	75992	5959.179133241171	2
0	76004	5960.686633910262	1
0	76009	5961.125419320547	0
0	76066	5966.31672572424	1
0	76077	5966.534213910812	2
0	76116	5971.539164304824	3
0	76140	5974.083544701104	2
0	76162	5975.991969686125	3
0	76171	5977.242133358756	2
0	76182	5977.41215965457	3
0	76183	5977.460165690535	2
0	76213	5979.351421113858	3
0	76225	5980.913216242195	2
0	76247	5982.065797909863	3
0	76250	5982.198367128448	4
0	76255	5982.948736434727	3
0	76262	5983.067881826303	4
0	76277	5983.817520948646	5
0	76280	5983.846984568397	6
0	76283	5984.145495634233	7
0	76288	5984.602282770445	6
0	76293	5984.639215714599	5
0	76304	5985.097328201972	4
0	76311	5985.594152868263	5
0	76356	5988.596792750322	4
0	76390	5990.609889289883	5
0	76429	5995.005580550646	4
0	76441	5996.306847525773	3
0	76449	5997.215236754157	2
0	76461	5997.330018096176	3
0	76482	5999.275826731126	2
0	76506	6000.491836598407	1
0	76525	6001.050604137373	0
0	76595	6006.35609442339	1
0	76644	6009.94249017646	0
0	76781	6019.171052510269	1
0	76801	6019.862239818247	2
0	76804	6019.953237753448	3
0	76816	6022.086390289928	2
0	76839	6023.781736092421	3
0	76840	6023.799764077042	2
0	76847	6023.840453495322	3
0	76869	6025.699749397214	4
0	76875	6026.050411493205	5
0	76880	6026.877226903061	4
0	76914	6028.755042065691	5
0	76917	6029.2049337003	6
0	76944	6032.063019397612	7
0	76945	6032.079115313826	6
0	76965	6034.944712048441	5
0	77074	6043.085661596277	4
0	77087	6043.3982098459	3
0	77095	6044.591007963659	2
0	77101	6044.794946009435	3
0	77120	6046.123811998795	4
0	77157	6049.26367948309	3
0	77170	6049.682626482898	2
0	77176	6049.884146905797	3
0	77237	6052.365912386112	4
0	77247	6053.406120858375	5
0	77316	6061.371856233057	6
0	77319	6061.927191193187	7
0	77339	6064.229391236551	6
0	77360	6066.116136898333	5
0	77399	6068.808558587056	4
0	77407	6069.941354742297	3
0	77412	6070.061597729473	2
0	77431	6071.753415507894	1
0	77452	6074.116740588398	0
0	77532	6081.756215063986	1
0	77535	6081.977613896861	2
0	77542	6082.466460586724	3
0	77592	6085.550351156083	4
0	77595	6085.818211327633	5
0	77598	6086.170514463509	6
0	77638	6089.571328871021	7
0	77672	6093.531787000124	8
0	77677	6093.957302153453	7
0	77863	6109.077347508996	8
0	77884	6110.842929275546	7
0	77889	6110.940222314763	6
0	77897	6111.576617248361	5
0	77905	6112.506620466294	4
0	77912	6112.720986040463	5
0	77913	6112.88021324634	4
0	77934	6113.757715395051	3
0	77941	6114.040123131732	2
0	77957	6115.029972869468	1
0	77974	6115.953514184804	2
0	77975	6116.446376534194	1
0	77979	6116.489015640422	0
0	78084	6123.446211401652	1
0	78085	6123.557872708871	0
0	78452	6150.061290074261	1
0	78453	6150.134843104062	0
0	78553	6159.150225378052	1
0	78579	6163.06925706141	0
0	78600	6164.530961202688	1
0	78611	6165.61366635279	2
0	78645	6168.894081355484	3
0	78648	6169.329934302537	4
0	78649	6169.824695895116	3
0	78676	6170.729262425993	4
0	78679	6170.806303459152	5
0	78690	6171.766930388788	4
0	78714	6172.934213428579	3
0	78728	6173.297590535889	4
0	78738	6173.527726437102	5
0	78741	6173.816543006477	6
0	78788	6177.786286960832	7
0	78808	6179.44381706998	8
0	78850	6182.515985706481	9
0	78874	6186.042849978546	8
0	78881	6186.530950464147	9
0	78885	6187.547965665088	8
0	78928	6190.218474232028	9
0	78972	6194.885238838757	8
0	78984	6195.974668383501	7
0	79033	6200.71993929187	6
0	79061	6202.769356740867	7
0	79090	6206.070312050362	8
0	79099	6206.67522418865	7
0	79124	6209.284155729303	8
0	79133	6210.094121195797	7
0	79160	6212.25591745696	8
0	79164	6213.148245422439	7
0	79187	6215.349467316806	8
0	79209	6216.416409873859	9
0	79228	6218.443115122342	10
0	79285	6224.666049660959	9
0	79297	6225.051965548748	10
0	79311	6225.671556708151	11
0	79312	6225.883854638674	10
0	79320	6227.110562776278	9
0	79364	6230.176752506862	8
0	79374	6232.84192135892	9
0	79392	6233.827289780766	8
0	79397	6233.898261815477	7
0	79427	6235.306038194533	6
0	79453	6238.218174819611	7
0	79462	6238.713721689389	6
0	79475	6240.915038286808	7
0	79483	6241.467710862987	8
0	79484	6241.503764178504	7
0	79496	6242.264762932049	6
0	79510	6243.076707029139	7
0	79524	6245.171829162437	8
0	79525	6245.444348582435	7
0	79530	6245.686534230723	6
0	79562	6246.530230632237	5
0	79579	6247.808213922341	4
0	79616	6250.99106068618	5
0	79620	6252.421488320127	4
0	79642	6253.523599996371	5
0	79661	6255.057435629548	6
0	79672	6255.803542791335	7
0	79699	6257.719426601192	8
0	79711	6258.658628414453	9
0	79743	6261.065778505994	8
0	79801	6265.828398999538	9
0	79847	6270.533816998165	8
0	79859	6271.188201257671	7
0	79890	6273.931218627345	6
0	79895	6274.702913625789	5
0	79900	6274.704920875649	4
0	79926	6278.150432902003	3
0	79948	6280.199924981225	4
0	79949	6280.535469994354	3
0	79961	6281.35798752258	2
0	79979	6282.001585352673	1
0	79996	6283.458398955388	2
0	79997	6284.391579137876	1
0	80002	6284.60326804897	0
0	80069	6289.555535824162	1
0	80079	6290.007038653012	2
0	80094	6291.041579015787	1
0	80106	6291.519344713877	0
0	80193	6297.941584662046	1
0	80194	6298.01583843965	0
0	80222	6299.837749077486	1
0	80223	6299.863183526156	0
0	80646	6334.89732874177	1
0	80663	6336.263783597865	0
0	80863	6357.214686559596	1
0	80867	6357.56263510561	0
0	80874	6357.636194092602	1
0	80886	6358.514901618252	0
0	80896	6359.686229974409	1
0	80900	6359.840725058987	0
0	81106	6374.65686223634	1
0	81115	6375.062651282135	0
0	81144	6378.087937830177	1
0	81147	6378.368409168958	2
0	81162	6379.532646605127	3
0	81165	6380.905646406956	4
0	81166	6380.913839402651	3
0	81186	6383.146969242423	2
0	81203	6384.766402587873	1
0	81219	6385.436310466776	0
0	81481	6409.803394036658	1
0	81485	6410.277726368431	0
0	81499	6410.513204702904	1
0	81516	6410.901028049061	0
0	81561	6415.023218752418	1
0	81571	6415.809587612924	0
0	81589	6417.814555985319	1
0	81593	6418.882613211128	0
0	81647	6420.825391862302	1
0	81648	6420.881677560544	0
0	81911	6450.518865356427	1
0	81914	6451.426101934184	2
0	81939	6454.567783459524	1
0	82032	6463.042722869001	2
0	82041	6464.708831742091	1
0	82060	6465.619957504939	2
0	82084	6467.441750288419	3
0	82099	6469.009680977615	4
0	82106	6469.158356244263	5
0	82133	6471.412349271321	6
0	82134	6471.784960047756	5
0	82151	6471.944477071739	4
0	82158	6471.962685128769	5
0	82196	6476.714094785999	4
0	82206	6476.820804092007	5
0	82214	6477.087560602795	6
0	82224	6477.753729340009	7
0	82246	6480.632751771751	6
0	82251	6480.907566148723	5
0	82255	6480.987731202565	4
0	82288	6483.303265763544	5
0	82306	6484.029663568259	4
0	82310	6484.151705374424	3
0	82320	6485.34631164347	4
0	82339	6486.846778923687	5
0	82421	6491.583551863651	6
0	82427	6493.323882003742	7
0	82434	6493.848722337634	8
0	82440	6494.459795286819	7
0	82445	6494.584993646959	6
0	82464	6495.401494709011	5
0	82485	6498.892894847321	6
0	82486	6499.041637893609	5
0	82495	6499.188363961587	4
0	82500	6499.696452583104	3
0	82539	6502.475308856267	2
0	82547	6502.572053723644	1
0	82559	6503.189279746417	0
0	82735	6514.978628567687	1
0	82750	6515.237349947861	2
0	82753	6515.357162240502	3
0	82754	6515.404846160148	2
0	82775	6517.739383533755	1
0	82786	6518.002975384565	2
0	82791	6519.217917521289	1
0	82816	6520.347994218827	2
0	82817	6520.462579798664	1
0	82838	6523.669438889789	0
0	82856	6524.126580033911	1
0	82877	6525.649437542607	2
0	82900	6528.060758649001	3
0	82904	6528.232457195228	2
0	82917	6528.975830196648	1
0	82950	6530.532077353824	0
0	83168	6546.063952859107	1
0	83191	6548.250870600956	0
0	83370	6561.632285658213	1
0	83388	6563.813393129275	2
0	83444	6568.458536772235	3
0	83455	6568.959952366339	4
0	83477	6570.039031136124	3
0	83523	6573.8662238706	2
0	83535	6575.922270781342	1
0	83549	6576.581587720445	2
0	83563	6578.720285666393	3
0	83564	6579.828923537494	2
0	83569	6580.003677671459	1
0	83574	6580.294349898253	0
0	83623	6582.784234234194	1
0	83688	6588.796630303158	0
0	83777	6596.992770453211	1
0	83778	6597.346025911182	0
0	83805	6600.129980732078	1
0	83865	6605.131971036463	0
0	83922	6610.211941476167	1
0	83932	6611.31454989648	2
0	83947	6611.691496035737	1
0	83969	6612.127267453995	2
0	84001	6615.157565865592	1
0	84010	6615.423582378803	0
0	84271	6637.131006927601	1
0	84276	6637.34753087521	0
0	84538	6665.692919739784	1
0	84562	6666.393994570812	2
0	84583	6666.888279118963	1
0	84609	6669.229162785739	0
0	84810	6684.835904152153	1
0	84811	6685.836187593419	0
0	84885	6690.468132994048	1
0	84886	6690.603989981685	0
0	84912	6691.483482596466	1
0	84913	6691.756825705491	0
0	84986	6697.881001005412	1
0	84997	6699.150289487479	2
0	85024	6703.225330722868	3
0	85025	6704.189669190173	2
0	85069	6709.242283550225	1
0	85086	6710.083663990985	0
0	85240	6722.394175289432	1
0	85241	6722.55087524752	0
0	85276	6724.944312118343	1
0	85287	6727.198796575141	0
0	85859	6772.824823790591	1
0	85865	6772.996570822922	0
0	85973	6781.400139979572	1
0	85985	6781.800240990125	2
0	85986	6781.831592889545	1
0	86024	6784.084458504819	0
0	86062	6786.514792157641	1
0	86070	6787.993537095764	0
0	86151	6799.245841062714	1
0	86160	6801.16382147285	2
0	86176	6804.198787395203	1
0	86181	6804.258585218951	0
0	86289	6814.783970304095	1
0	86331	6817.403318195313	0
0	86671	6848.070925427705	1
0	86677	6848.596905719096	2
0	86709	6850.65046999397	3
0	86728	6852.308101242607	4
0	86742	6853.711504872642	3
0	86764	6855.495837788557	2
0	86777	6855.897108681089	1
0	86787	6856.026039743273	2
0	86827	6859.244579245343	3
0	86845	6860.151054895716	4
0	86853	6860.602322186481	3
0	86874	6863.04936872856	2
0	86879	6863.225653969971	1
0	86890	6864.147311467172	2
0	86903	6864.423388069719	1
0	86945	6867.202651099542	0
0	87022	6873.420009977683	1
0	87050	6875.138534933717	0
0	87299	6899.203638425765	1
0	87320	6901.579027417402	0
0	87346	6903.823326583113	1
0	87359	6905.778056907233	0
0	87397	6908.89736232636	1
0	87470	6916.666739487415	0
0	87570	6923.30075758684	1
0	87597	6925.364347225408	2
0	87600	6925.406205314853	3
0	87670	6929.412588450007	4
0	87671	6930.316792049153	3
0	87675	6930.738394380053	2
0	87717	6933.798250623539	3
0	87725	6934.480425333513	4
0	87726	6934.57985070647	3
0	87741	6935.178859803932	4
0	87744	6935.257452556776	5
[...]
9	257669	20392.048782767317	813.28659899513
9	257673	20392.239669385261	364.84388420506
9	257677	20392.304332415655	806.40930547963
9	257681	20392.707212552073	806.81540670244
9	257685	20393.200242854875	361.27449114904
9	257689	20393.451907789466	787.85642332448
9	257693	20394.139713058694	354.94117938649
9	257697	20396.513294251629	782.25954770436
9	257701	20397.341040936613	1805.9773558127
9	257705	20398.420126545254	353.85745683202
9	257709	20401.347240438838	1799.1243507705
9	257713	20404.701118536484	1795.8821488861
9	257717	20405.923957512644	786.8080944468
9	257721	20406.784627142813	786.26814071778
9	257725	20407.429587756675	778.34104789865
9	257729	20408.08425815509	2491.9004192802
9	257733	20409.722726649385	352.79692470352
9	257737	20412.531467779488	781.6869913209
9	257741	20416.447938279934	784.84101594515
9	257745	20423.356081949087	791.45857628898
9	257749	20423.505781305599	778.55558469064
9	257753	20425.800974939682	777.85049111237
9	257757	20428.94649963281	767.10496834128
9	257761	20430.8632412013	374.46395956306
9	257765	20431.375461707902	371.98548925414
9	257769	20432.687115836914	1814.658950599
9	257773	20433.423580676238	771.25765593265
9	257777	20436.595380919892	1817.2376717293
9	257781	20437.938067535855	366.52413266975
9	257784	20439.489522870333	367.59254072174
9	257788	20442.785646555777	1816.3799134599
9	257792	20448.016749048806	1822.3117181834
9	257796	20449.381651605432	787.38309541224
9	257800	20452.29778935558	1811.0057510738
9	257804	20453.612585129025	782.72983071552
9	257808	20455.528309827796	1813.7692563626
9	257812	20460.520920368448	789.47125982796
9	257816	20460.853037651384	780.64482245961
9	257824	20462.858792859839	775.70399534312
9	257828	20465.492226244826	781.60922645966
9	257832	20467.967670574518	770.02023322994
9	257836	20469.270638250595	761.40013973023
9	257840	20470.848907089553	1821.9959145096
9	257844	20471.186201804191	747.30793390321
9	257848	20474.97319111236	743.13398267432
9	257852	20480.275437461544	1838.5779396217
9	257856	20480.306549794393	1817.9961839746
9	257860	20482.238477957668	753.39138154486
9	257864	20482.726452415635	1820.2228186855
9	257868	20488.833507099205	1826.1704317907
9	257872	20495.033781069224	746.14198292551
9	257876	20497.644061399581	1831.8359361355
9	257880	20498.027080840002	1831.0952178804
9	257884	20501.995197103656	747.13083554846
9	257888	20503.79274393649	746.95765962279
9	257892	20505.923239764645	2165.3555671692
9	257896	20511.884033025831	1841.0477184442
9	257900	20512.290905927368	749.46688124799
9	257904	20514.225787379825	1834.6581516699
9	257908	20516.393995718796	750.84955598743
9	257912	20520.403458512432	1835.9994553311
9	257916	20521.424911864737	749.39366357048
9	257920	20522.763760437729	1829.0476804611
9	257924	20524.865531632046	754.79563623017
9	257928	20530.579385738928	1828.6263033368
9	257932	20538.818556615785	1835.0193539185
9	257936	20542.353650522302	1835.0851926497
9	257940	20544.109696549496	1838.246538191
9	257948	20547.362735169962	1826.5491336469
9	257952	20548.294413198917	773.64756006993
9	257956	20550.969700268252	777.82953749145
9	257960	20551.543722050005	768.90001071932
9	257964	20551.947939421383	2006.7503974944
9	257968	20553.054100945608	758.38029352077
9	257972	20556.213905622297	1816.2521864486
9	257976	20556.59719689368	1834.391673227
9	257980	20557.602372312034	1815.3757407253
9	257984	20557.712296241359	1815.4752034415
9	257988	20558.455106944798	1821.720064742
9	257992	20566.322158345154	1825.1326042823
9	257996	20566.960035105703	1808.1108702795
9	258000	20567.457008848327	771.31527006298
9	258004	20568.491843619327	763.81099165441
9	258008	20576.514247723018	1814.1851211531
9	258012	20576.861290343615	1804.8891909043
9	258016	20577.947736418453	771.43162388539
9	258020	20577.963251053396	780.51183094161
9	258024	20583.437416195498	1810.6555862424
9	258028	20586.313209931794	775.31358302026
9	258032	20586.554179872694	746.49545029533
9	258036	20590.685065579044	745.92486714499
9	258040	20590.759151912198	1815.915726117
9	258044	20592.791272453974	747.35489304588
9	258048	20598.317554277014	1821.4441772824
9	258052	20601.068171753485	760.80547647021
9	258056	20602.37432172513	1821.441393864
9	258060	20602.82854217282	1809.2148511064
9	258064	20603.659152399261	1815.2776105814
9	258068	20603.89343640818	758.89735322468
9	258072	20605.576839837294	764.96863005865
9	258076	20605.975848302998	1804.6712300518
9	258080	20608.55397687767	766.00024899306
9	258084	20608.864120851036	1809.8247156561
9	258088	20611.930165990702	760.27372583585
9	258092	20613.99421093053	768.50424068462
9	258096	20616.411992716185	1813.5228602036
9	258100	20617.197976734082	759.28456894271
9	258104	20618.711620669582	755.73604111263
9	258108	20619.351778477772	740.22388859741
9	258112	20623.04397480326	738.80380127043
9	258116	20626.010497973762	744.79665037473
9	258120	20626.139379548923	1816.858380762
9	258124	20626.72805949103	740.20971416338
9	258128	20627.29375052717	738.70227106399
9	258132	20629.455001917188	2266.3750913145
9	258136	20631.383172967958	742.72921625074
9	258140	20631.914551514261	1816.4239797422
9	258144	20634.843824353245	1812.6818611787
9	258148	20638.995592289207	1813.2133699242
9	258152	20639.341748830018	1811.2190858911
9	258156	20639.435767955405	749.19892466541
9	258160	20644.418536466499	1813.6299461257
9	258164	20647.539131808427	1803.3558410726
9	258168	20648.372105531634	1801.2825508033
9	258172	20650.060404653922	759.13816253803
9	258176	20651.806507118791	1802.0498040583
9	258180	20654.294420835348	1799.419719109
9	258184	20660.143342873207	769.98908562955
9	258188	20662.430749612317	765.90114456044
9	258192	20669.451601746388	765.35584070073
9	258196	20672.491462681695	767.80496303639
9	258200	20679.544765264583	763.25753967729
9	258204	20681.890170580747	763.6721106595
9	258208	20684.874838672153	764.95339861145
9	258212	20687.113243230706	764.76124964008
9	258216	20688.354886680002	1820.3314217579
9	258220	20688.597905723071	1819.5020503548
9	258224	20690.594385304935	1820.1002837837
9	258228	20697.802511371865	1818.2171633193
9	258232	20699.390635534221	767.1239392441
9	258236	20699.537033113563	763.72499727935
9	258240	20703.18139999807	1827.2926031629
9	258244	20703.661973650679	771.68240841045
9	258248	20707.149762394144	771.15788346034
9	258252	20707.854001611814	1836.4033097264
9	258256	20707.871090644223	1820.2779377774
9	258260	20713.598851050699	781.05901086447
9	258264	20717.160972241817	1819.3755876448
9	258268	20719.354393701098	781.03935708354
9	258272	20719.961110858537	1817.5879230361
9	258276	20721.179845592761	783.94772745148
9	258280	20721.558212558577	3369.5817624218
9	258284	20722.368697643442	1813.0747087821
9	258288	20722.696652231595	1813.0404654285
9	258292	20723.051199602612	781.80757872541
9	258296	20724.095977048712	775.77285495298
9	258300	20727.296564746641	775.40796940989
9	258304	20730.877153869174	1810.7258308151
9	258308	20731.446185747005	768.57375682984
9	258312	20731.527038047964	1811.100715905
9	258316	20732.354834597129	1809.784935011
9	258320	20735.526254511844	777.33617875203
9	258324	20735.666877083889	1810.2160927087
9	258328	20738.950161529688	1810.4004044036
9	258332	20741.869614632938	774.44459514963
9	258336	20743.103466906173	1819.3750520875
9	258340	20743.441363032145	771.38589074436
9	258344	20743.490819669783	763.31529664034
9	258348	20744.707181910395	1813.4521220466
9	258352	20745.658190179442	761.12121521836
9	258356	20748.060619134545	757.99663022092
9	258360	20752.672833259417	1818.81883106
9	258364	20757.5709089482	767.53032806974
9	258368	20762.563819735982	1827.8961154775
9	258372	20763.130702137754	758.15687955252
9	258376	20770.545688872572	768.51512068657
9	258380	20770.904817643624	1821.3142015779
9	258384	20771.266871034636	1811.2051861645
9	258388	20772.052242823021	3394.9836389379
9	258392	20772.611737778366	2516.2963422034
9	258396	20776.684871830602	1809.8940597947
9	258400	20779.575970716598	769.14726604857
9	258404	20782.626849544967	1800.9077122025
9	258408	20782.890163820741	770.52904050098
9	258412	20783.140973115781	1794.9110438576
9	258416	20783.988775241932	1787.5026219381
9	258420	20784.595152128657	1781.4690362318
9	258424	20784.940087924341	770.71538933231
9	258428	20785.567287179724	1786.8110613103
9	258432	20786.21285737555	1777.6373705366
9	258436	20790.187512484937	1780.0580742496
9	258440	20794.742005482118	791.56047322483
9	258444	20799.944258355396	781.96737680613
9	258448	20801.218498968526	1788.9216468171
9	258452	20805.645449987221	1792.1746212853
9	258456	20805.863891117025	1792.5512409935
9	258460	20808.604631540598	777.69380189931
9	258464	20808.953402854397	770.70671837241
9	258468	20812.668673498313	2019.5868994466
9	258472	20812.918453272205	774.09335016215
9	258476	20814.589567126681	1788.8610516711
9	258480	20816.995818708065	1800.4947333424
9	258484	20823.220018260579	778.11829278423
9	258488	20824.307908407163	1794.2381790042
9	258492	20824.58649244517	781.35485144487
9	258496	20827.677843382807	781.63175177233
9	258500	20832.003640908369	776.3515990458
9	258504	20834.281004626426	776.63142462904
9	258508	20837.210725825584	775.75926752377
9	258511	20841.502056802416	775.7121368831
9	258515	20844.261463232674	3410.2798923074
9	258519	20846.516750880489	1805.3643301401
9	258523	20847.500519193017	1804.2737087902
9	258527	20849.115955331272	2498.9315867625
9	258531	20849.75083342623	1812.8593484267
9	258535	20858.233445610326	1820.1915347109
9	258543	20875.327506322988	1823.1573201594
9	258547	20877.499714566747	1823.0761264214
9	258551	20884.863261919346	1841.2418397065
9	258555	20886.747447191232	1832.8019684235
9	258559	20892.489269490669	1819.5698583698
9	258563	20892.916500755626	1816.8529694819
9	258567	20893.738412463547	1812.6135481682
9	258571	20911.537952088313	1827.9256215721
9	258575	20924.251944262697	1836.643718227
9	258579	20937.983015626913	1846.2215573614
9	258583	20938.275904043694	1845.99811597
9	258587	20943.201847720208	2562.2944074248
9	258591	20951.339958288263	1866.9464669941
9	258595	20961.119539556856	1875.4661268109
9	258599	20978.619506873946	1886.0628380742
9	258603	20978.997850208002	1869.7734787762
9	258607	20983.555424116313	1886.2916409648
9	258611	20989.173211328057	1889.2203357959
9	258615	20989.731203381423	1875.6772496402
9	258619	20990.550955471992	3513.885662639
9	258623	21001.373963003094	2333.2597799695
9	258627	21005.767334580246	1876.7041873971
9	258631	21006.885291331232	1884.5061287605
9	258635	21009.250747651307	1876.772164262
9	258639	21010.576626240747	1877.4240570405
9	258643	21014.701812673441	1881.6278836066
9	258647	21019.165492528876	1881.126386884
9	258651	21021.603510072625	1880.1687739141
9	258655	21025.445308331568	1883.4360924358
9	258659	21030.533460074621	1887.6993705697
9	258663	21030.692054079739	1881.1127485073
9	258667	21034.997631384297	1879.4748051744
9	258671	21039.702587434853	1888.5759348767
9	258675	21048.484174070941	1887.4398778392
9	258679	21051.097384724871	1888.8314364085
9	258683	21052.577027386839	1888.4341353975
9	258687	21053.434204893855	1891.5526978233
9	258691	21055.765134924797	1898.6044783843
9	258695	21059.245187824325	1890.949488749
9	258699	21067.698194304218	1894.9974037623
9	258703	21068.735273273401	1888.555303004
9	258707	21069.320905872463	1878.0007851309
9	258711	21081.271630624576	1886.3568418886
9	258719	21096.823642243406	1895.9689640193
9	258723	21097.49826023522	2089.2316685939
9	258727	21097.762178243666	1891.6672838901
9	258731	21098.011281914872	1888.4203161461
9	258735	21098.669523412141	1888.5072661413
9	258739	21107.715310905547	1892.1978297791
9	258743	21121.416617928193	1906.5365362321
9	258747	21130.532098989334	1923.2259193387
9	258751	21136.388840175022	1920.0927136707
9	258759	21147.092463441663	1917.8373789532
9	258763	21150.094780994721	1910.4224990294
9	258767	21155.234753610186	1922.9058702821
9	258771	21164.333093035343	1900.7326851201
9	258775	21164.508624851362	1915.7824345208
9	258779	21167.091926300415	1896.9717669962
9	258783	21170.119597035009	2023.473470315
9	258787	21172.951927308173	1885.4553988062
9	258791	21174.629105397142	3593.2810925449
9	258795	21178.032603208911	1914.4806564384
9	258799	21182.341001452878	1885.535890789
9	258803	21182.551537275658	1890.7005929673
9	258807	21200.000759645808	1902.2088923909
9	258811	21206.506433461985	1905.7455196171
9	258815	21207.613289667277	1906.2295450687
9	258819	21227.961205562975	1920.5057972638
9	258823	21235.538639586204	1922.4462962606
9	258827	21236.656287622046	1919.8560449374
9	258831	21236.726644676051	1916.15158478
9	258835	21241.219961567608	1913.079321959
9	258839	21243.329439530348	1901.3382791616
9	258843	21247.416512503228	2083.5494926351
9	258847	21252.707084726354	1908.6863759007
9	258851	21254.923887916696	1923.2761785405
9	258855	21257.942027966022	1920.3875467235
9	258859	21266.03387960927	1915.3419731324
9	258863	21269.036247030241	1914.6162478746
9	258867	21285.243399846223	1917.5100844351
9	258871	21286.799376528315	1912.2223917839
9	258875	21289.732696901461	1919.0747204417
9	258879	21293.918092215117	1916.3367948068
9	258883	21297.535164453671	1918.2134738352
9	258887	21304.597491226178	1916.16646471
9	258891	21307.177186878894	1923.8787888892
9	258895	21308.841382857749	1913.7106311899
9	258899	21326.726179101905	1928.8026359608
9	258903	21328.385130238535	1927.8779144374
9	258907	21329.387012373094	1928.5624517098
9	258911	21332.091218581917	1914.441250632
9	258915	21332.167508309123	1908.2423827245
9	258919	21336.069121750842	1910.0120967888
9	258923	21339.63649357349	1906.7982827732
9	258927	21344.76558241634	1905.7271444732
9	258931	21344.777959925211	1903.8025193073
9	258935	21350.004124186429	2446.289414114
9	258939	21357.192403765144	1912.6901029698
9	258943	21361.106163752575	2447.6151317708
9	258947	21361.209340088409	1882.91355296
9	258951	21362.327069264237	1880.3865402139
9	258955	21364.703244698225	1882.2122164373
9	258959	21373.169917065463	1884.9610853813
9	258963	21373.96899681021	1889.3552247968
9	258967	21374.808823606724	1880.8351169667
9	258971	21390.548121517935	1896.6519891268
9	258975	21397.57249813396	1912.5924756403
9	258979	21398.57180945244	1897.5241980285
9	258983	21413.932657798914	1908.7491101022
9	258987	21416.99870751531	1911.5334797113
9	258991	21417.459236963705	1911.1668639873
9	258995	21423.726922582093	1907.7417182185
9	258999	21424.530654074616	1905.1871468658
9	259003	21444.739495342288	1940.3072144006
9	259007	21447.45955118216	1927.7142628907
9	259011	21455.163938090605	1923.0998985399
9	259015	21461.20819879791	1918.9223426724
9	259019	21463.145396591394	1912.6540280056
9	259023	21465.443096818958	1905.4337544607
9	259027	21465.880643796938	2583.5880716647
9	259031	21481.393252475903	1917.3191124979
9	259035	21483.394492436714	1920.2675291651
9	259039	21493.977604973238	1930.6829942398
9	259043	21496.221764452598	2014.5546572032
9	259047	21496.77946541345	1921.4803898359
9	259051	21498.402041900859	1928.2774060141
9	259055	21501.90883015161	1917.9905629036
9	259059	21502.705876979599	1912.4333795805
9	259063	21508.387113088761	1910.4108838828
9	259067	21511.843376482277	1912.9525013002
9	259071	21512.473192621743	1911.716632138
9	259075	21519.043569265332	1912.5713590478
9	259079	21522.659704448227	1915.2838185118
9	259083	21538.994771594323	1930.4349735944
9	259087	21548.503839923108	1931.6086393174
9	259091	21548.68339681294	1928.759241673
9	259095	21552.733576076507	1931.1215237956
9	259099	21555.042330718314	1907.3597486676
9	259103	21557.774999017301	1903.8611607685
9	259107	21558.132845586941	1899.2208696042
9	259111	21558.646542124827	1898.4112056858
9	259115	21562.943423372964	2389.7301385817
9	259119	21563.833021554081	1904.8530649432
9	259123	21607.031715066589	1941.3840501735
9	259127	21613.115828164648	1945.3149542893
9	259131	21617.443789724749	1947.9370419783
9	259135	21618.873743201767	1951.7557469113
9	259139	21625.479184189061	1958.9356181588
9	259143	21628.642701530017	1952.2137701728
9	259147	21631.080945924279	1952.814950633
9	259151	21637.889976866587	3646.3858328223
9	259155	21640.452680177495	1950.4657787815
9	259159	21640.832696391696	1957.6614623214
9	259163	21650.360412150017	1950.3808361406
9	259167	21655.269565230798	1941.3140865973
9	259171	21658.019290651877	1942.9893361056
9	259175	21658.098569024393	1959.2160427198
9	259179	21678.979318087497	2107.2334015101
9	259183	21680.383958810628	1959.6045291346
9	259187	21681.040622531332	1964.1633910849
9	259191	21683.099501644695	1960.9826132518
9	259195	21686.460783999077	1959.5187336489
9	259199	21691.456313051429	1955.3068491668
9	259203	21697.67378850978	3615.564035529
9	259207	21698.397220590454	1956.2715944251
9	259211	21699.688000851178	1958.9097630516
9	259215	21703.933443378763	1942.3702443841
9	259219	21707.703946467232	1942.79876673
9	259223	21708.69896548081	1946.7105325769
9	259227	21713.170369109542	1947.3609611897
9	259231	21715.581299410903	1947.1376966585
9	259235	21722.780375913722	1944.7602607835
9	259239	21747.952323967584	1968.6450600553
9	259243	21751.286455090057	1971.4573095333
9	259247	21754.394688787606	1976.0296484579
9	259251	21758.435164988448	1968.4971758418
9	259255	21769.139688363438	1979.4682150452
9	259259	21769.289054506275	1976.2912679665
9	259263	21773.15810101382	1972.3167218656
9	259267	21778.153739521159	2487.1980049542
9	259271	21783.206247464891	1971.2693127232
9	259275	21802.499634155456	1987.3498684402
9	259279	21809.157973875888	2115.9246154411
9	259283	21811.396613815813	1994.2128416331
9	259287	21811.602999855046	1993.655278969
9	259291	21819.558990012719	2002.1631703329
9	259295	21821.14601755671	1990.0778582503
9	259299	21833.842549549532	2002.1775835318
9	259307	21834.944181324723	1994.9814278653
9	259311	21836.917263154806	1979.6982125931
9	259315	21845.757820398826	1981.0256144617
9	259319	21855.220850642153	1987.0468455072
9	259323	21856.728406817403	1984.1668230915
9	259327	21865.475246800365	2186.7577101107
9	259331	21872.744055194505	1990.3828399542
9	259335	21875.683047222485	1991.3258059855
9	259339	21880.383614799367	1995.8013973424
9	259343	21883.508510796208	1993.0177218404
9	259347	21895.339254590142	2002.2966648632
9	259351	21899.181409967276	3670.1810363703
9	259355	21902.848170913177	2005.0247841283
9	259359	21903.44915316514	1994.1287394158
9	259363	21913.818622528106	1997.2065237769
9	259367	21916.803975716616	1994.4248391535
9	259371	21919.096774817588	1983.1934092763
9	259375	21924.240924256904	1983.7579478987
9	259379	21937.783314451032	1991.742908647
9	259383	21940.089084852131	1989.792657282
9	259387	21940.940460656889	1989.1736311775
9	259391	21951.143959897268	1999.0229882624
9	259395	21953.198468998814	1987.8717564375
9	259399	21958.033042398461	1983.2606398625
9	259403	21975.353961527226	1997.7460129077
9	259407	21975.490687879112	1993.2074989846
9	259411	21978.61735229375	3676.6669225107
9	259415	21987.773944908089	1959.5093691282
9	259419	21988.179057340576	1953.8595078325
9	259423	22001.337791229147	1960.1809402898
9	259427	22009.498404372348	1943.5016482472
9	259431	22014.550602368852	1947.1330275214
9	259435	22017.273050484563	2159.858457142
9	259439	22019.304129600788	2047.1012409411
9	259443	22021.082246354512	2114.679470843
9	259447	22022.086938215406	2102.7547353679
9	259451	22022.124217590809	2341.6351129243
9	259455	22031.290892643543	3318.979946922
9	259459	22035.327521978233	2984.2622976773
9	259463	22042.566741662345	2844.8694477708
9	259467	22057.757591550678	2837.5594060214
9	259470	22059.383958294222	2226.5033433297

